<?xml version="1.0" encoding="UTF-8"?>

<!-- generated on 2026-01-08 07:28:52.846818 by Eclipse SUMO osmWebWizard.py v1_25_0+0000-ac6c5a6752d
<configuration>
    <net-file value="D:\IP1\Project\Code\Simulation\2026-01-08-07-26-34\osm.net.xml.gz"/>
    <output-trip-file value="D:\IP1\Project\Code\Simulation\2026-01-08-07-26-34\osm.pedestrian.trips.xml"/>
    <route-file value="D:\IP1\Project\Code\Simulation\2026-01-08-07-26-34\osm.pedestrian.rou.xml"/>
    <pedestrians value="True"/>
    <prefix value="ped"/>
    <vehicle-class value="pedestrian"/>
    <fringe-factor value="1"/>
    <seed value="44"/>
    <max-distance value="2000.0"/>
    <insertion-density value="10.0"/>
</configuration>
-->

<!-- generated on 2026-01-08T07:28:36.571559+01:00 by Eclipse SUMO duarouter 1.25.0
<duarouterConfiguration xmlns:xsi="http://www.w3.org/2001/XMLSchema-instance" xsi:noNamespaceSchemaLocation="http://sumo.dlr.de/xsd/duarouterConfiguration.xsd">

    <input>
        <net-file value="D:\IP1\Project\Code\Simulation\2026-01-08-07-26-34\osm.net.xml.gz"/>
        <route-files value="D:\IP1\Project\Code\Simulation\2026-01-08-07-26-34\osm.pedestrian.trips.xml"/>
    </input>

    <output>
        <output-file value="D:\IP1\Project\Code\Simulation\2026-01-08-07-26-34\osm.pedestrian.rou.xml"/>
        <alternatives-output value="NUL"/>
    </output>

    <time>
        <begin value="0.0"/>
        <end value="3600.0"/>
    </time>

    <report>
        <no-warnings value="true"/>
        <ignore-errors value="true"/>
        <no-step-log value="true"/>
    </report>

</duarouterConfiguration>
-->

<routes xmlns:xsi="http://www.w3.org/2001/XMLSchema-instance" xsi:noNamespaceSchemaLocation="http://sumo.dlr.de/xsd/routes_file.xsd">
    <vType id="ped_pedestrian" vClass="pedestrian"/>
    <person id="ped0" type="ped_pedestrian" depart="0.00">
        <walk edges="112515761#1 -112515799 -233525270#1 1344385467 -112515768 -444420017 112515787 233629766 42979431 179936986 -334155566 -19926108 19889427 1344385472 1344385470 -112136918 -112136936#0 112136936#1 112136929 -112136944 -211196246#1 -41656968#1 97236169#0 -358703632 -75488560 375924493 140997946 -25150411 -480645125 -548881044 118793670#1 -118793670#0 -410000812 -1300996916 1372708229#1 1372708229#0 736878368 867981795 624498953#0 1458551949 1458551948#0 672520938#0 672520938#1 672520938#2 1079097170#2 919938028#0 250683470#0 1086025330#1 1415173263 1451965629#1 1451965634 1358237060#0 1358237060#1 1454780928#1 1454780926 1454780923#2 1454780923#1 1454780922 1454780921#0 -671113569#4 671113569#3 1451973696#1 1451973693#1 1451973691#1 384196610#12 1358237062#3"/>
    </person>
    <person id="ped1" type="ped_pedestrian" depart="0.98">
        <walk edges="597837597#0 -142052138#0 142052149#1 142052149#0 -142052143#0 219719293#5 219719293#6 673412899#0 673412899#2 1023699857 867981797#0 1241486774#0 1241486774#1 1241486774#2 1241486774#3 1241486774#4 1241486774#5 1241486774#6 1241486774#7 1241486775#1 1241486773#1 1026143469 1097042710#2 -1425361365#0 1346040526 22737108#2 22737108#1 22737108#0 -1127508111#0 1127508111#1 -1363896193#2 -30025270#1 -1363896191#3 -1363896191#2 -1363896191#1 -1363896191#0 -30025170#6 -198202744#0 -198202744#2 -83492500#2 -83492500#1 -83492500#0 -1127508112 -30024728#3 30024728#4 -30024734 25115974#0 -28548640#1 233629771#1 -233629771#2"/>
    </person>
    <person id="ped2" type="ped_pedestrian" depart="1.96">
        <walk edges="-37522068#0 -37522154#0 -142757142 142757139 142757140#1 -129628611#1 -129628615#0 -142757143#0 142757143#1 22766391#0 97236166 -1346680750 97236163 -26824603 60844538 -1432115343 1416521168 140997946 375924493 -75488560 -358703632 97236169#0 -41656968#1 -211196246#1 -112136944 112136929 112136936#1 -112136936#0 -112136918 1344385470 1344385472 19889427 -19926108 -334155566 179936986 42979431 233629766 112515787 -444420017 -112515768 1344385467 -233525270#1 -112515799 -112515761#1"/>
    </person>
    <person id="ped3" type="ped_pedestrian" depart="2.94">
        <walk edges="-20437767#3 -20437767#2 20437767#1 -20437767#0 22737007#0 233575679 -118730703#2 -118730703#0 -384196606#3 -384196606#2 -384196606#1 -1174646202 -1342122245#1 -1342122245#0 384196607#7 -384196607#6 -384196607#5 384196607#4 -384196607#3 -384196607#2 -384196607#1 -384196607#0 -26824662#2 26824848#4 -26824848#2 720966392#0 324437444#0 525187037#2 478028844#1 478028844#2 624498956#5 624498956#4 624498956#3 624498956#2 624498956#1 1090413059#0 408197311#2 1358237061#2 1358237061#3 1358237060#0 1358237060#1 597837599#0 597837599#1 771871398 771871387#0 597837602#3 597837602#2 771871385#2 771871385#1 1069085504#4 1335720205"/>
    </person>
    <person id="ped4" type="ped_pedestrian" depart="3.92">
        <walk edges="97236175 143310759 -696788631 -140997937 -140997931#0 -1015293772 -750699449#0 -750699449#1 -326551912 -442773129 1435723285 -118741685 -326551909 326551910#0 -326551910#1 -326551910#2 -1346680751 -410000812 -1300996916 1372708229#1 1372708229#0 736878368 867981794#0 1079099965#1 1372708228#0 1372708228#1 1372708227#1 -661876099#0 661876099#1 1363896196#1 22737108#4 22737108#2 22737108#1 22737108#0 -1127508111#0 1127508111#1 -1363896193#2 -30025270#1 -1363896191#3 -1363896191#2 -1363896191#1 -1363896191#0 1363896190#5 -1363896190#4 -1363896190#2 1363896190#1 713795541 1346090337 -1363896202 -198202880 -20444974#1 -20444974#0 1372708222#1 1372708222#0 -20444745 -198187825#0 -198187825#1 198187825#2"/>
    </person>
    <person id="ped5" type="ped_pedestrian" depart="4.90">
        <walk edges="186354544#7 1083353073 1083353077 1083353074#0 1083353074#1 -1073435067#1 755299271#1 755299271#2 -729901901#0 1073435073#1 1073435073#0 1411173684 1411173686 920640242#1 920640244#0 920640244#1 1353319832#1 920640244#3 1413048954#0 1413048954#1 1413048956#0 1413048956#1 1413048961#1 1413048959#1 -174970475#1 -174970475#2 -174970475#4 52502294#0 52502294#1 -52502299#0 -621783194#2 621783194#1 621783195 621783197 -621783196#0 621783201 -621783200#1 -1286095145 -55874607#0 -219752764#0 -527943457#1 -143311245#1 922990795#1 922990794#2 135702201#1 164014452#2 -908938111#0"/>
    </person>
    <person id="ped6" type="ped_pedestrian" depart="5.89">
        <walk edges="-1297703457#0 1353184115 1353184114 1353184116 1353184110 1353184111 1353184112 1353184113 -504282973#1 528358804"/>
    </person>
    <person id="ped7" type="ped_pedestrian" depart="6.87">
        <walk edges="1413276412 1413276413 1413276402#1 1413276402#0 1413487658#1 1413487658#0 1413487648#6 1413487648#5 1413496783#1 1413496783#0 1413496784 938759447#1 1413496782#1 1413496781#2 1413496794 -978781529#3 -978781529#4 -978781529#5 978781529#7 601666743#0 601666743#1 601666743#2 601666743#3 404275706#1 606061323#17 606061323#16 -134233676#2 1413048992#2 1224998861#1 987724419#2 987724419#3 1413261549#2 1099901039#0 1413261550 627369458#1 627369458#0 1307080195#0 1307080195#1 1307080194#5 1307080194#4 1307080194#3 1307080194#2 1307080194#1 186354544#2 -186354544#3 -186354544#4 475414767 482991722#0 1073435068 1073435073#1 1073435073#0 1411173684 1411173686 920640242#1 920640244#0 920640244#1 1353319832#1 920640244#3 1413048952 115229328 -1386671645#1 -1386671645#0"/>
    </person>
    <person id="ped8" type="ped_pedestrian" depart="7.85">
        <walk edges="1291542297 1186910727#4 1186910727#5 1186910727#6 1186910727#7 1186910727#8 1186910727#9 -490488009#1 -490488009#0 -440954770#1 -440954770#0 1411194021 1411194024#1 1411194027 1411194022#2 22737008#2 1429768848#0 1023248224#1 1023248224#2 1097042711#10 1097042711#9 1097042711#8 1097042711#7 1097042711#6 1097042711#5 1097042711#4 1097042711#3 1097042707#3 517877442#1 1413048977 1413048975 1413048966 1413048964#0 1413048964#1 1413048964#2 1413048963#0 1413048963#1 1413048955 1413048961#1 1413048959#1 -174970475#1 -174970475#2 -174970475#4 442773115 1263534148 758131032#1 758131029#0 758131031"/>
    </person>
    <person id="ped9" type="ped_pedestrian" depart="8.83">
        <walk edges="-262879713 -262879710#2 -262879710#3 262879715 -219716163#0 720966392#4 720966392#5 720966392#6 720966392#7 720966392#8 867981794#0 1079099965#1 1372708228#0 1372708228#1 1372708227#1 -661876099#0 661876099#1 1363896196#1 22737108#4 22737108#2 22737108#1 22737108#0 -1127508111#0 1127508111#1 -1363896193#2 -30025270#1 -1363896191#3 -1363896191#2 -1363896191#1 -1363896191#0 1363896190#5 -1363896190#4 -1363896190#2 1363896190#1 713795541 1346090337 -1363896202 -198202880 -20444974#1 -20444974#0 1372708222#1 1372708222#0 -20444745 -198187825#0 -198187825#1 -490606271#0 490606271#1 -490606271#2"/>
    </person>
    <person id="ped10" type="ped_pedestrian" depart="9.81">
        <walk edges="-449717741 22737108#1 22737108#2 1346040526 -1425361365#0 1097042710#2 1026143469 1241486773#1 1241486775#1 1241486774#7 1241486774#6 1241486774#5 1241486774#4 1241486774#3 1241486774#2 1241486774#1 1241486774#0 867981797#0 1023699857 395173811#1 395173811#3 395173811#4 -410000811#2 -410000811#1 219719293#1 -119372733#0"/>
    </person>
    <person id="ped11" type="ped_pedestrian" depart="10.79">
        <walk edges="1437799088#0 1437799088#1 1094653822#1 1094653822#2 1454780914 384196610#19 1454780911#0 1454780909 1454780911#1 -671113569#4 1454780921#0 1454780922 1454780923#1 1454780923#2 1454780926 -597837601#1 408197311#4 624498956#0 624498956#1 624498956#2 624498956#3 624498956#4 624498956#5 478028844#2 478028844#1 525187037#2 324437444#0 720966392#0 -26824848#2 26824848#4 -26824662#2 -384196607#0 -384196607#1 -384196607#2 -384196607#3 384196607#4 -384196607#5 -384196607#6 384196607#7 -1342122245#0 -1342122245#1 395173810#0 395173810#1 384196613#4 1411194021 1411194017 1306619157#6 1411173694#1 1411173694#2 1411173696 1411173698 -1097042718 -1097042709 961600915#3 961600915#4 -920710232#5"/>
    </person>
    <person id="ped12" type="ped_pedestrian" depart="11.77">
        <walk edges="504282966#0 -128130064#1 128130064#2 -1316337020 15229957#2 1388729596#0 1388729595 43675753#1 1388729599 42230255 -42230257 42474487 42474486 -140038551#0 164014453#0 22764743#0 233525237 22764741#1 22764742#0 697849525 697849441#0 697849441#1 164014457#1 -131335283 97236166 -1346680750 97236163 -140997936 -26824596 -991362407 1435723285 -118741685 -326551909 326551910#0 -326551910#1 -326551910#2 -1346680751 -410000812 -1300996916 1372708229#1 1372708229#0 736878368 867981794#0 142052148#5"/>
    </person>
    <person id="ped13" type="ped_pedestrian" depart="12.75">
        <walk edges="-406920568#1 1413261559#0 698053496#2 698053496#1 698053496#0 690525959 1103872202 -1413266135 720845272#3 1333691365#0 1087288195 759150988#1 758213443#2 1087288193#1 1307080262#1 1226170570#0"/>
    </person>
    <person id="ped14" type="ped_pedestrian" depart="13.73">
        <walk edges="406949416 1263601899 53644788#0 53644788#1 1263601898 321058836#1 321058834 1263601900 53644786 1384063748#0 1384063749#2 1454169664#1 1454169665#1 1454169663 1451959668#0 1451959668#1 1454456317#0 1454456324#0 1454456324#1 1454456327#2 1454456327#1 1454456331#0 14464600#0 -1454456335#0 163623451"/>
    </person>
    <person id="ped15" type="ped_pedestrian" depart="14.71">
        <walk edges="-96152205#3 119372738 26824848#4 -26824848#2 720966392#0 324437444#0 525187037#2 478028844#1 478028844#2 624498956#5 624498956#4 -1094609061 1094609063 919804495#0 671155242#2 919804495#2 624498954#4 1079097171#0 1079097171#1 1079097171#2 1079097171#3 1079097171#4 1458551950 1026201966#0 478028843#0 -478028843#1 -478028843#2 -478028843#3 -478028843#4 -478028843#5 478028843#6"/>
    </person>
    <person id="ped16" type="ped_pedestrian" depart="15.69">
        <walk edges="52502299#0 -621783194#2 621783194#1 621783195 621783197 -621783196#0 621783201 -621783200#1 -1286095145 -55874607#0 -219752764#0 527943457#1 143311245#0 922990795#0 922990792#0 922990792#1 922985785#1 922985783 -47463083#0 219752766 219752765 162031199#0 174970474#1 164014471#2 539883989 539883986 22764741#1 22764742#0 697849525 697849441#0 697849441#1 164014457#1 -131335283 97236166 -1346680750 97236163 -140997936 -26824596 -991362407 1435723285 -1435723284 -956414409 991362408 -956414410 -1346680756#0 -219716161 -219716163#0 -1097042717 1094609062#1 1094609062#2 624498956#5 624498956#4 624498956#3 624498956#2 624498956#1 624498956#0 408197311#4 -597837601#1 1454780926 1454780923#2 1454780923#1 1454780922 1454780921#0 -671113569#4 671113569#3 1451973696#1 1451973693#1 1451973691#1 1451973691#0 1451973690 1451973669#0 384196610#7 384196610#5 384196610#3 -901974921 -1319044648 -1319044644#0 -1319044643 -1319044656 -919804494 208425613 -208425640#1 -119398513#0 119398513#1 -243662304#0 -1184218162#2"/>
    </person>
    <person id="ped17" type="ped_pedestrian" depart="16.68">
        <walk edges="-20437777#0 -20437777#1 -20437778#1 -146218890 1413048964#1 -134233681 -134233679#1 1413048954#0 1413048952 115229328 -1386671645#1 -1263534145 -806901599 -1263534153#0 -1263534153#1 -855278227 -50648723#1 -50648723#2 -442436506#0 -442436506#1 -1070810248 1352935375#1 1352935375#0 134230462#1 134230462#0 1263601899 53644788#0 53644788#1 1263601898 321058836#1 321058834 1263601900 53644786 1384063748#0 1384063749#2 1433607424 1307085478#1 1307085484 1307085481 67411720#2 67411720#1 67411720#0 59389068#9 59389068#8 59389068#7 59389068#6 59389068#5 59389068#4 59389068#3 59389068#2 59389068#1 1384038625 1384038624 42294998#0 42294998#1 41590948#0 41590948#1 41590948#2 1384063788 -414947296#0 369007487#1 -369007488"/>
    </person>
    <person id="ped18" type="ped_pedestrian" depart="17.66">
        <walk edges="-108124428#1 -142062774#1 -216457491 51344608#5 -51344608#4 -118956829#1 147263992#6 -548881041#0 -51344611#2 -51344611#1 294441189 25115805#1 25115805#0 233629756#16 233629756#15 233629756#14 233629756#13 233629756#12 233629756#11 233629756#10 233629756#9 233629756#8 233629756#7 233629756#6 233629756#5 233629756#4 233629756#3 233629756#2 30024892"/>
    </person>
    <person id="ped19" type="ped_pedestrian" depart="18.64">
        <walk edges="1427304063 1427304064 1427200840#1 1427200840#0 920640244#1 1353319832#1 920640244#3 1413048952 115229328 -1386671645#1 -1263534145 -806901599 -1263534153#0 -1263534153#1 -855278227 -50648723#1 -50648723#2 -442436506#0 -442436506#1 -1070810248 1352935375#1 1352935375#0 134230462#1 134230462#0 1263601899 53644788#0 53644788#1 1263601898 321058836#1 321058834 1263601900 53644786 1384063748#0 1384063749#2 1433607424 1307085478#1 1307085485#0 1307085485#1 1307085483#0 1307085483#1 1433607423 670402333 1386674014#2 1386674014#1 69344068#2 69344068#1 135935395"/>
    </person>
    <person id="ped20" type="ped_pedestrian" depart="19.62">
        <walk edges="987724419#3 1413261549#2 1099901039#0 1413261550 627369458#1 627369458#0 1307080195#0 1307080195#1 1307080194#5 1307080194#4 1307080194#3 1307080194#2 1307080194#1 186354544#2 -186354544#3 -186354544#4 475414767 482991722#0 1073435068 1073435073#1 1073435073#0 1411173684 1411173686 920640242#1 920640244#0 920640244#1 1353319832#1 920640244#3 1413048952 115229328 -1386671645#1 -1263534145 -806901599 -1263534153#0 -1263534153#1 -855278227 -50648723#1 1013210011"/>
    </person>
    <person id="ped21" type="ped_pedestrian" depart="20.60">
        <walk edges="-931322319#0 1127508113 -1363896202 1346090337 713795541 1363896190#1 -1363896190#2 -1363896190#4 1363896190#5 -1363896191#0 -1363896191#1 -1363896191#2 -1363896191#3 -30025270#1 -1363896193#2 1127508111#1 -1127508111#0 22737108#0 22737108#1 22737108#2 22737108#4 1363896196#1 661876099#1 -661876099#0 1372708227#1 1372708228#1 -730167663#1 729375661#5 729375661#4 729375661#3 729375661#2 729375661#1 729375661#0 742248988#1 -921180877#1 921180877#0 -480645125 -25150411 140997946 375924493 -75488560 -358703632 97236169#0 -41656968#1 -211196246#1 -112136944 112136929 112136936#1 -112136936#0 -112136918 1344385470 1344385472 19889427 -19926108 -334155566 -179936986 20447152 1344385465 -622467611#1 1361998252 622467609 20447172 158697097 -20447170#0 -20447170#1 1361998251 1337275701#1 1337275701#0 1361998250 -1361998248 343671691 -1361998247 52129998#1"/>
    </person>
    <person id="ped22" type="ped_pedestrian" depart="21.58">
        <walk edges="1413266140#1 1413266142 1196066619 720845272#0 720845272#2 720845272#3 606061323#17 606061323#16 917963188#0 -917963188#1 -917963188#2 917963188#4 606061323#12 -606061323#11 -606061323#10 -606061323#9 -606061323#8 901974065#0 901974065#1 1186910727#6 1186910727#7 1186910727#8 1186910727#9 -490488009#1 -490488009#0 1411194045 1318600281#1 1318600280#3 1318600280#2 1318600280#1 292550641#1 -20437767#0 22737007#0 233575679 292550642 619741405#2 -44848109#3 -44848109#2 -44848109#1 -44848109#0 -219752764#7 -219752764#6 -219752764#5 -219752764#4 -1220380451"/>
    </person>
    <person id="ped23" type="ped_pedestrian" depart="22.56">
        <walk edges="-627584404 821158979 112515761#2 -112515799 -233525270#1 1344385467 -112515768 -444420017 112515787 233629766 42979431 179936986 -334155566 -19926108 19889427 1344385472 1344385470 -112136918 -112136936#0 112136936#1 112136929 -112136944 -211196246#1 -41656968#1 97236169#0 -358703632 -75488560 375924493 140997946 -25150411 -480645125 -548881044 118793670#1 -118793670#0 -410000812 -1300996916 1372708229#1 1372708229#0 736878368 867981795 142052148#4 142052148#3 1026201966#2 1026201966#3 1026201966#4 1026143474#1 1425361372#1 1425361372#2 1425361377#0 1425361378"/>
    </person>
    <person id="ped24" type="ped_pedestrian" depart="23.54">
        <walk edges="1413496810#1 -597837604#3 1087585226 -548040154#0 -131002535#1 -293817957#0 623940044 -293817957#2"/>
    </person>
    <person id="ped25" type="ped_pedestrian" depart="24.52">
        <walk edges="1307080213#1 1307080213#0 1307080212#1 1307080210 1307080209#0 961585926 961585923#1 1307080201#0 1307080201#1 1307080201#2 1307080201#3 1099901039#1 1099901039#0 1413261549#2 987724419#3 987724419#2 1224998861#1 1413048992#2 -134233676#2 606061323#16 606061323#17 404275706#1 601666743#3 601666743#2 601666743#1 601666743#0 978781529#7 -978781529#5 -978781529#4 -978781529#3 1413496794 1413496781#2 1413496782#1 938759447#1 1413496784 1413496783#0 1413496783#1 1413487648#5 1413487648#6 1413487658#0 1413487658#1 1413276402#0 1413276402#1 1413276402#2 1315576913#1 -1315576913#2 -1315576913#3 -1252055030#0 -601666698#0 -601666698#1 -601666698#2 -601666698#3 -601666698#4"/>
    </person>
    <person id="ped26" type="ped_pedestrian" depart="25.50">
        <walk edges="-67411792#2 67411792#0 69344068#2 1386674014#1 1386674014#2 670402333 1433607423 1307085483#1 1307085483#0 1307085485#1 1307085485#0 1307085478#1 -67411748#0 1454169665#1 1454169663 1451959668#0 1451959668#1 1454456317#0 1454456324#0 1454456324#1 1454456327#2 1454456327#1 1454456331#0 1454456331#1 233525232#1 233525232#2 164014450 -164014451 42474486 42474487 -42230257 42230255 1388729599 43675753#1 1388729595 1388729596#0 15229957#2 -1316337020 1388729598#1 1388729594 1388729584#1 1388803527 1388803524 1388803523#1 -19881637#0 -19881637#1 -233525225#0 112136950#0 -112136950#1 -112136916#1 112136916#0"/>
    </person>
    <person id="ped27" type="ped_pedestrian" depart="26.48">
        <walk edges="1429188413 -336669365 19889421#5 622467607 158697097 20447172 622467609 1361998252 -622467611#1 1344385465 20447152 -179936986 -334155566 -19926108 19889427 1344385472 1344385470 -112136918 -112136936#0 112136936#1 112136929 -112136944 -211196246#1 -41656968#1 97236169#0 -358703632 -75488560 375924493 140997946 -25150411 -480645125 921180877#0 -921180877#1 742248988#1 729375661#0 729375661#1 729375661#2 729375661#3 729375661#4 729375661#5 -730167663#1 1372708228#1 1372708227#1 -661876099#0 661876099#1 -1363896195#1 -1363896195#0 -741201990#2 741201990#1 741201990#0"/>
    </person>
    <person id="ped28" type="ped_pedestrian" depart="27.46">
        <walk edges="-1319044652#0 1319044650#0 1137271412 1307201004#2 1094653822#0 1094653822#1 1094653822#2 1454780914 384196610#19 1454780911#0 1454780909 1454780911#1 -671113569#4 1454780921#0 1454780922 1454780923#1 1454780923#2 1454780926 -597837601#1 408197311#4 624498956#0 624498956#1 624498956#2 624498956#3 624498956#4 624498956#5 478028844#2 478028844#1 525187037#2 324437444#0 720966392#0 -26824848#2 26824848#4 -26824662#2 -384196607#0 -384196607#1 -384196607#2 -384196607#3 384196607#4 -384196607#5 -384196607#6 384196607#7 -1342122245#0 -1342122245#1 395173810#0 395173810#1 384196613#4 1411194021 1411194017 1306619157#5 1306619157#4 1306619157#3 1306619157#2 1306619157#1 1306619157#0 1413048985#0 715073563#1 715073563#0 574818307 533138102#1 715073566"/>
    </person>
    <person id="ped29" type="ped_pedestrian" depart="28.45">
        <walk edges="326551910#2 -326551910#1 326551910#0 -326551909 -118741685 1435723285 -991362407 -26824596 -140997936 97236163 -1346680750 97236166 -131335283 164014457#1 697849441#1 697849441#0 697849525 22764742#0 22764741#1 -22764741#0 -22764743#0 140038552#0 1316999772#1 -164014452#0 -15229949 -55874618#0"/>
    </person>
    <person id="ped30" type="ped_pedestrian" depart="29.43">
        <walk edges="-440954770#1 -490488009#0 -490488009#1 1186910727#9 1186910727#8 1186910727#7 1186910727#6 901974065#1 901974065#0 -606061323#7 1306619158#1 1333777279#3 574818306#0 698053485#1 698053485#0 533138102#1 533138102#0 1099901039#1 1413261550 627369458#1 627369458#0 1307080195#0 1307080195#1 1307080194#6 627021998#9 627021998#10 -626992872#1 -482991722#8 545262878#1 48240400#2 87986863#0 87986863#1 37768334#1 -37768334#0 344108269 -143861142 20441565 20441570#1"/>
    </person>
    <person id="ped31" type="ped_pedestrian" depart="30.41">
        <walk edges="1382042169 1382042170#1 -87503183#1 -87503183#0 -257982302#0 -257982302#1 -257982304 -368284198 297105553#2 297105553#1 -297105553#0 -297723418#1 -297723418#0 -1051653546 414947296#5 -414947296#4 -414947296#3 -414947296#2 -414947296#0 1384063788 41590948#2 41590948#1 41590948#0 42294998#1 42294998#0 1384038624 1384038625 59389068#1 59389068#2 59389068#3 59389068#4 59389068#5 59389068#6 59389068#7 59389068#8 59389068#9 67411720#0 67411720#1 67411720#2 1307085481 1307085484 1307085478#1 -67411748#0 1454169665#1 1454169663 1451959668#0 1451959668#1 1454456317#0 1454456324#0 1454456324#1 1454456327#2 1454456327#1 1454456331#0 14464600#1 -233525232#0 -233525232#1 55874618#3 55874618#2 55874618#0 1284588390#4 1284588390#3 -129631339"/>
    </person>
    <person id="ped32" type="ped_pedestrian" depart="31.39">
        <walk edges="-160212594#6 -160212594#5 -525191732#6 -525191732#5 -525191732#4 -525191732#2 -525191732#0 -392689411#1 -392689411#0 1413266140#2 1413266142 1196066619 720845272#0 720845272#2 720845272#3 606061323#17 606061323#16 917963188#0 -917963188#1 -917963188#2 917963188#4 606061323#12 1307080248#1 1307080246 1333777285 1307080244#2 -160212616#6 -160212616#5 -160212616#4 899493105"/>
    </person>
    <person id="ped33" type="ped_pedestrian" depart="32.37">
        <walk edges="-47463290#2 -47463290#1 -47463290#0 -47463291 -22766391#2 -22766391#0 97236166 -1346680750 97236163 -26824603 60844538 -1432115343 1416521168 140997946 480645126#1 480645126#2 -531734424#0 -531734424#2 -531734424#3 -531734424#4 -531734424#6 -118793556#0 1207886827 211200146 220140489 867977149 -211200138 867977146 867977147 402014069#0 1207886831 -402014072"/>
    </person>
    <person id="ped34" type="ped_pedestrian" depart="33.35">
        <walk edges="-83492504 233629756#5 -28548640#0 -28548640#1 25115974#0 -30024734 30024728#4 -30024728#3 -1127508112 -83492500#0 -83492500#1 -83492500#2 -198202744#2 -198202744#0 -30025170#6 -1363896191#0 -1363896191#1 -1363896191#2 -1363896191#3 -30025270#1 -1363896193#2 1127508111#1 -1127508111#0 22737108#0 22737108#1 22737108#2 22737108#4 783248708#0 -783248708#1 -1425361371 1425361367#1 1425361373#1 -1425361370#1 83492494#1 83492494#0 -624498952#4 624498952#3 -624498952#0 1458551948#0 672520938#0 672520938#1 672520938#2 1079097170#2 919938028#0 250683470#0 1086025330#1 1415173263 1451965629#1 1451965634 1358237060#0 1358237060#1 1454780928#1 1454780926 1454780923#2 1454780923#1 1454780922 1454780921#0 -671113569#4 671113569#3 1451973696#1 1451973693#1 1451973691#1 1451973691#0 1451973690 1451973669#0 384196610#7 384196610#5 384196610#3 -901974921"/>
    </person>
    <person id="ped35" type="ped_pedestrian" depart="34.33">
        <walk edges="855278226 -855278227 -50648723#1 -50648723#2 -442436506#0 -442436506#1 -1070810248 1352935375#1 1352935375#0 134230462#1 134230462#0 1263601899 53644788#0 53644788#1 1263601898 321058836#1 321058834 1263601900 53644786 1384063748#0 1384063749#2 1433607424 1307085478#1 1307085484 1307085481 67411720#2 67411720#1 1384038645#0 -1384038645#2 1384038648 233525238#2 233525238#1 233525238#0 1384063763 163623463#3 163623463#2 42294993#1 163623418#0"/>
    </person>
    <person id="ped36" type="ped_pedestrian" depart="35.31">
        <walk edges="164014453#0 22764743#0 233525237 22764741#1 22764742#0 697849525 697849441#0 697849441#1 164014457#1 -131335283 97236166 -1346680750 97236163 -380969254 143310762 143310759 -140997927#1 -140997927#2 -119859565#2 -119859565#1 -119859565#0 -119859564#0 121860444 -119372735#4 121860436"/>
    </person>
    <person id="ped37" type="ped_pedestrian" depart="36.29">
        <walk edges="25116601#4 25116601#5 -25116601#6 233629756#14 233629756#13 233629756#12 233629756#11 233629756#10 1365801352#0 1363896180#2 -20443381#5 -83492490#0 -83492490#1 -83492490#2 -83492490#3 -956357516#0 -956357516#1 -241958414#1 -956357516#3 -30024728#2 -1127508112 -83492500#0 -83492500#1 -83492500#2 -198202744#2 -198202744#0 -30025170#6 -1363896191#0 -1363896191#1 -1363896191#2 -1363896191#3 -30025270#1 -1363896193#2 1127508111#1 -1127508111#0 22737108#0 22737108#1 22737108#2 1346040526 -1425361365#0 1097042710#2 1026143469 1241486777#1 -1026143468#1"/>
    </person>
    <person id="ped38" type="ped_pedestrian" depart="37.27">
        <walk edges="-75488751#0 -326551909 -118741685 1435723285 -991362407 -26824596 -140997936 97236163 -1346680750 97236166 -131335283 164014457#1 697849441#1 697849441#0 697849525 22764742#0 22764741#1 233525237 22764743#0 164014453#0 -140038551#0 42474486 42474487 -42230257 42230255 1388729599 43675753#1 1388729595 1388729596#0 15229957#2 -1316337020 128130064#2 1388729592 1388729586#1 504282966#1 -22764857#0 -504282973#0 1353184113 1353184112 1353184111"/>
    </person>
    <person id="ped39" type="ped_pedestrian" depart="38.25">
        <walk edges="-739173545#0 -739173545#2 -739173545#3 -128130064#1 128130064#2 -1316337020 15229957#2 1388729596#0 1388729595 43675753#1 1388729599 42230255 -42230257 42474487 42474486 -140038551#0 164014453#0 22764743#0 233525237 22764741#1 -142757389 97236171 -42467801 -37522154#0 -142757142 142757139 142757140#1 -142757140#0"/>
    </person>
    <person id="ped40" type="ped_pedestrian" depart="39.24">
        <walk edges="160212616#4 -160212616#5 -160212616#6 1333777279#1 901974064#1 1413048980#1 -606061323#9 -606061323#8 901974065#0 901974065#1 1186910727#6 1186910727#7 1186910727#8 1186910727#9 -490488009#1 -490488009#0 1411194045 1318600281#1 1318600280#3 1318600280#2 1318600280#1 292550641#1 -20437767#0 22737007#0 233575679 292550642 619741405#2 -44848109#3 -44848109#2 -44848109#1 -44848109#0 -219752764#7 -219752764#6 -219752764#5 -219752764#4 -219752764#3 -219752764#2 -219752764#1 -219752764#0 527943457#1 143311245#0 922990795#0 922990792#0 922990792#1 922985785#1 922985783 -47463083#0 219752766 219752765 162031199#0 174970474#1"/>
    </person>
    <person id="ped41" type="ped_pedestrian" depart="40.22">
        <walk edges="-867981792#1 -1372708229#0 1372708229#1 -1300996916 -410000812 -1346680751 -326551910#2 -326551910#1 326551910#0 -326551909 -118741685 1435723285 -991362407 -26824596 -140997936 97236163 -1346680750 97236166 -131335283 164014457#1 697849441#1 697849441#0 697849525 22764742#0 22764741#1 233525237 22764743#0 164014453#0 -140038551#0 -164014451 164014450 233525232#2 233525232#1 1454456331#1 1454456331#0 1454456327#1 1454456327#2 1454456324#1 1454456324#0 1454456317#0 1451959668#1 1451959668#0 1454169663 1454169665#1 1454169664#1 1384063749#2 1384063748#0 53644786 1263601900 321058834 321058836#1 1263601898 53644788#1 53644788#0 1263601899 134230462#0 134230462#1 1352935375#0 1352935375#1 -1070810248 -442436506#1 -442436506#0 -50648723#2 -50648723#1 -855278227 -1263534153#1 -1263534153#0 -806901599 -1263534145 -1386671645#1 115229328 1413048952"/>
    </person>
    <person id="ped42" type="ped_pedestrian" depart="41.20">
        <walk edges="-83492500#0 -83492500#1 -83492500#2 -198202744#2 -198202744#0 -30025170#6 -1363896191#0 -1363896191#1 -1363896191#2 -1363896191#3 -30025270#1 -1363896193#2 1127508111#1 -1127508111#0 22737108#0 22737108#1 22737108#2 22737108#4 1363896196#1 661876099#1 -661876099#0 1372708227#1 1372708228#1 1372708228#0 1079099965#1 867981794#0 736878368 1372708229#0 1372708229#1 -1300996916 -410000812 -1346680751 -326551910#2 -326551910#1 326551910#0 -326551909 -75488752#2 -956414409 1435723284"/>
    </person>
    <person id="ped43" type="ped_pedestrian" depart="42.18">
        <walk edges="475414865#0 1083353082#0 1413780716 1307080194#2 1307080204#1 1307080204#0 1307080202#1 1307080203#1 1307080203#0 1307080201#3 533138102#0 533138102#1 698053485#0 698053485#1 574818306#0 1333777279#2 901974064#1 1413048980#1 1413048978#1 1186910716#2 134230456#0 134230456#1 134230456#2 134230456#3 -1190201907 1186765707#0 1186765706#1 1186765705#0 597837604#4 -1087288182#0"/>
    </person>
    <person id="ped44" type="ped_pedestrian" depart="43.16">
        <walk edges="-1087288178#0 -1087288178#1 601666743#2 601666743#3 404275706#1 606061323#17 606061323#16 -606061323#15 -606061323#14 -1307080250#0"/>
    </person>
    <person id="ped45" type="ped_pedestrian" depart="44.14">