<?xml version="1.0" encoding="UTF-8"?>

<!-- generated on 2026-01-08 07:27:46.104532 by Eclipse SUMO osmWebWizard.py v1_25_0+0000-ac6c5a6752d
<configuration>
    <net-file value="D:\IP1\Project\Code\Simulation\2026-01-08-07-26-34\osm.net.xml.gz"/>
    <output-trip-file value="D:\IP1\Project\Code\Simulation\2026-01-08-07-26-34\osm.passenger.trips.xml"/>
    <route-file value="D:\IP1\Project\Code\Simulation\2026-01-08-07-26-34\osm.passenger.rou.xml"/>
    <prefix value="veh"/>
    <trip-attributes value="departLane=&quot;best&quot;"/>
    <fringe-start-attributes value="departSpeed=&quot;max&quot;"/>
    <vehicle-class value="passenger"/>
    <lanes value="True"/>
    <fringe-factor value="5"/>
    <allow-fringe.min-length value="1000.0"/>
    <edge-permission value="passenger"/>
    <via-edge-types value="highway.motorway,highway.motorway_link,highway.trunk_link,highway.primary_link,highway.secondary_link,highway.tertiary_link"/>
    <seed value="43"/>
    <min-distance value="300.0"/>
    <min-distance.fringe value="10.0"/>
    <remove-loops value="True"/>
    <insertion-density value="12.0"/>
</configuration>
-->

<routes xmlns:xsi="http://www.w3.org/2001/XMLSchema-instance" xsi:noNamespaceSchemaLocation="http://sumo.dlr.de/xsd/routes_file.xsd">
    <vType id="veh_passenger" vClass="passenger"/>
    <trip id="veh0" depart="0.00" from="-128130064#1" to="20447183#2" departLane="best" type="veh_passenger"/>
    <trip id="veh1" depart="1.66" from="-181437246#0" to="1086024427#3" departLane="best" type="veh_passenger"/>
    <trip id="veh2" depart="3.33" from="19889425" to="406017622#1" departLane="best" type="veh_passenger"/>
    <trip id="veh3" depart="4.99" from="-1105826279#2" to="1026143467#3" departLane="best" type="veh_passenger"/>
    <trip id="veh4" depart="6.66" from="-606061323#17" to="531723600#1" departLane="best" type="veh_passenger"/>
    <trip id="veh5" depart="8.32" from="1344385469#1" to="27215486#1" departLane="best" type="veh_passenger"/>
    <trip id="veh6" depart="9.99" from="-97236167" to="-20437774" departLane="best" type="veh_passenger" departSpeed="max"/>
    <trip id="veh7" depart="11.65" from="480645125" to="442773113" departLane="best" type="veh_passenger"/>
    <trip id="veh8" depart="13.32" from="-60844538" to="-141054099" departLane="best" type="veh_passenger"/>
    <trip id="veh9" depart="14.98" from="1266032429" to="1207110923#1" departLane="best" type="veh_passenger"/>
    <trip id="veh10" depart="16.65" from="301754080#1" to="1450296349#1" departLane="best" type="veh_passenger"/>
    <trip id="veh11" depart="18.31" from="1241456237#0" to="1416521168" departLane="best" type="veh_passenger"/>
    <trip id="veh12" depart="19.98" from="-622467607" to="-131335282#3" departLane="best" type="veh_passenger"/>
    <trip id="veh13" depart="21.64" from="-1344385469#0" to="697849525" departLane="best" type="veh_passenger"/>
    <trip id="veh14" depart="23.31" from="446506377#1" to="-442773111" departLane="best" type="veh_passenger"/>
    <trip id="veh15" depart="24.97" from="548881044" to="1316999152#1" departLane="best" type="veh_passenger"/>
    <trip id="veh16" depart="26.63" from="141054098" to="684006412#3" departLane="best" type="veh_passenger" departSpeed="max"/>
    <trip id="veh17" depart="28.30" from="19926890" to="-141054098" departLane="best" type="veh_passenger" departSpeed="max"/>
    <trip id="veh18" depart="29.96" from="145831277" to="392689407#5" departLane="best" type="veh_passenger" departSpeed="max"/>
    <trip id="veh19" depart="31.63" from="55874618#3" to="-531730073#0" departLane="best" type="veh_passenger"/>
    <trip id="veh20" depart="33.29" from="1316117835#0" to="22736992" departLane="best" type="veh_passenger"/>
    <trip id="veh21" depart="34.96" from="-19926892" to="52502593#2" departLane="best" type="veh_passenger" departSpeed="max"/>
    <trip id="veh22" depart="36.62" from="362262995-AddedOffRampEdge" to="-131335283" departLane="best" type="veh_passenger"/>
    <trip id="veh23" depart="38.29" from="1413048971#0" to="-57372785#2" departLane="best" type="veh_passenger"/>
    <trip id="veh24" depart="39.95" from="-20447172" to="15093785#0" departLane="best" type="veh_passenger"/>
    <trip id="veh25" depart="41.62" from="758405104#2" to="1365797490" departLane="best" type="veh_passenger"/>
    <trip id="veh26" depart="43.28" from="-148638464#0" to="1196066619" departLane="best" type="veh_passenger"/>
    <trip id="veh27" depart="44.95" from="362262995" to="741201990#3" departLane="best" type="veh_passenger"/>
    <trip id="veh28" depart="46.61" from="22737023#1" to="-1271022341#2" departLane="best" type="veh_passenger"/>
    <trip id="veh29" depart="48.28" from="746032766#1" to="1454456335#0" departLane="best" type="veh_passenger"/>
    <trip id="veh30" depart="49.94" from="-140997927#1" to="-15229946#0" departLane="best" type="veh_passenger"/>
    <trip id="veh31" depart="51.60" from="-140997936" to="20437787" departLane="best" type="veh_passenger"/>
    <trip id="veh32" depart="53.27" from="-19889421#1" to="41656941#3" departLane="best" type="veh_passenger"/>
    <trip id="veh33" depart="54.93" from="-1450296349#4" to="1344385463" departLane="best" type="veh_passenger"/>
    <trip id="veh34" depart="56.60" from="1043253685#1" to="-1266032429" departLane="best" type="veh_passenger"/>
    <trip id="veh35" depart="58.26" from="-1026201965#1" to="606974212#0-AddedOffRampEdge" departLane="best" type="veh_passenger"/>
    <trip id="veh36" depart="59.93" from="83487127#1" to="-151912632" departLane="best" type="veh_passenger"/>
    <trip id="veh37" depart="61.59" from="233629756#1" to="928846835" departLane="best" type="veh_passenger"/>
    <trip id="veh38" depart="63.26" from="56008763" to="57372785#3" departLane="best" type="veh_passenger" departSpeed="max"/>
    <trip id="veh39" depart="64.92" from="-531734424#4" to="22767301" departLane="best" type="veh_passenger"/>
    <trip id="veh40" depart="66.59" from="115229331" to="697712600#1" departLane="best" type="veh_passenger"/>
    <trip id="veh41" depart="68.25" from="218651828" to="520495295#0" departLane="best" type="veh_passenger" departSpeed="max"/>
    <trip id="veh42" depart="69.92" from="50648723#2" to="-67198498" departLane="best" type="veh_passenger"/>
    <trip id="veh43" depart="71.58" from="22737008#1" to="-141054098" departLane="best" type="veh_passenger"/>
    <trip id="veh44" depart="73.25" from="-746032766#0" to="20447165#1" departLane="best" type="veh_passenger"/>
    <trip id="veh45" depart="74.91" from="1409244964#0" to="-383176691#0" departLane="best" type="veh_passenger"/>
    <trip id="veh46" depart="76.58" from="141054099" to="60844538" departLane="best" type="veh_passenger" departSpeed="max"/>
    <trip id="veh47" depart="78.24" from="-527943457#1" to="-533535799#5" departLane="best" type="veh_passenger"/>
    <trip id="veh48" depart="79.90" from="-20447172" to="-20437797#1" departLane="best" type="veh_passenger"/>
    <trip id="veh49" depart="81.57" from="42474489#1" to="22737008#2" departLane="best" type="veh_passenger"/>
    <trip id="veh50" depart="83.23" from="741201990#4" to="20441563#1" departLane="best" type="veh_passenger"/>
    <trip id="veh51" depart="84.90" from="-20447176" to="-233629756#15" departLane="best" type="veh_passenger" departSpeed="max"/>
    <trip id="veh52" depart="86.56" from="-1344385469#0" to="-118793556#0" departLane="best" type="veh_passenger"/>
    <trip id="veh53" depart="88.23" from="1264647438#0" to="622467608" departLane="best" type="veh_passenger" departSpeed="max"/>
    <trip id="veh54" depart="89.89" from="520495295#3" to="731187532" departLane="best" type="veh_passenger"/>
    <trip id="veh55" depart="91.56" from="140997931#1" to="-393281021" departLane="best" type="veh_passenger"/>
    <trip id="veh56" depart="93.22" from="-164014452#2" to="334153735" departLane="best" type="veh_passenger"/>
    <trip id="veh57" depart="94.89" from="20447181" to="-151912632" departLane="best" type="veh_passenger"/>
    <trip id="veh58" depart="96.55" from="145831277" to="-22766391#0" departLane="best" type="veh_passenger" departSpeed="max"/>
    <trip id="veh59" depart="98.22" from="-928846830#3" to="-1086025330#0" departLane="best" type="veh_passenger" departSpeed="max"/>
    <trip id="veh60" depart="99.88" from="-60844541#0" to="-527943457#1" departLane="best" type="veh_passenger"/>
    <trip id="veh61" depart="101.55" from="-37768338#2" to="-158723728" departLane="best" type="veh_passenger"/>
    <trip id="veh62" depart="103.21" from="1409244964#0" to="20447176" departLane="best" type="veh_passenger"/>
    <trip id="veh63" depart="104.87" from="-22737000" to="-1284588390#2" departLane="best" type="veh_passenger"/>
    <trip id="veh64" depart="106.54" from="-404275706#2" to="219752764#2" departLane="best" type="veh_passenger"/>
    <trip id="veh65" depart="108.20" from="-408197311#3" to="19889421#0" departLane="best" type="veh_passenger"/>
    <trip id="veh66" depart="109.87" from="-1386671645#0" to="22736997#0" departLane="best" type="veh_passenger"/>
    <trip id="veh67" depart="111.53" from="-174970475#4" to="-23791683#0" departLane="best" type="veh_passenger"/>
    <trip id="veh68" depart="113.20" from="233525232#1" to="1087485089#1" departLane="best" type="veh_passenger"/>
    <trip id="veh69" depart="114.86" from="19889421#2" to="-442773117" departLane="best" type="veh_passenger"/>
    <trip id="veh70" depart="116.53" from="59709079#1" to="26611647" departLane="best" type="veh_passenger"/>
    <trip id="veh71" depart="118.19" from="1346410058" to="520495295#3" departLane="best" type="veh_passenger"/>
    <trip id="veh72" depart="119.86" from="14464630#1" to="233629414#0" departLane="best" type="veh_passenger"/>
    <trip id="veh73" depart="121.52" from="1284588390#1" to="1416521168" departLane="best" type="veh_passenger"/>
    <trip id="veh74" depart="123.19" from="-233525232#0" to="68122526#0" departLane="best" type="veh_passenger"/>
    <trip id="veh75" depart="124.85" from="164014448" to="442773112#0" departLane="best" type="veh_passenger"/>
    <trip id="veh76" depart="126.52" from="143311245#0" to="-115229320#0" departLane="best" type="veh_passenger"/>
    <trip id="veh77" depart="128.18" from="-1450296349#2" to="55874618#2" departLane="best" type="veh_passenger"/>
    <trip id="veh78" depart="129.84" from="20447183#1" to="606974212#1" departLane="best" type="veh_passenger"/>
    <trip id="veh79" depart="131.51" from="55874609#1" to="-26824560" departLane="best" type="veh_passenger"/>
    <trip id="veh80" depart="133.17" from="921104673#4" to="15229949" departLane="best" type="veh_passenger"/>
    <trip id="veh81" depart="134.84" from="233525232#2" to="1315613577#0" departLane="best" type="veh_passenger"/>
    <trip id="veh82" depart="136.50" from="-374675896#1" to="112136935" departLane="best" type="veh_passenger"/>
    <trip id="veh83" depart="138.17" from="1085819260#0" to="-442773114#1" departLane="best" type="veh_passenger"/>
    <trip id="veh84" depart="139.83" from="-402014070#1" to="-164014455#0" departLane="best" type="veh_passenger"/>
    <trip id="veh85" depart="141.50" from="404277029#1" to="-55874614#1" departLane="best" type="veh_passenger"/>
    <trip id="veh86" depart="143.16" from="-57381103" to="383176690#3" departLane="best" type="veh_passenger"/>
    <trip id="veh87" depart="144.83" from="20447172" to="1085792522#1" departLane="best" type="veh_passenger"/>
    <trip id="veh88" depart="146.49" from="-47519280#3" to="408197310#3" departLane="best" type="veh_passenger"/>
    <trip id="veh89" depart="148.16" from="-25150116" to="1086024427#3" departLane="best" type="veh_passenger" departSpeed="max"/>
    <trip id="veh90" depart="149.82" from="-606061323#8" to="97236161" departLane="best" type="veh_passenger"/>
    <trip id="veh91" depart="151.49" from="-26824596" to="14464658#0" departLane="best" type="veh_passenger"/>
    <trip id="veh92" depart="153.15" from="1315576913#0" to="-131335282#2" departLane="best" type="veh_passenger"/>
    <trip id="veh93" depart="154.81" from="37522154#0" to="-233629755#0" departLane="best" type="veh_passenger"/>
    <trip id="veh94" depart="156.48" from="-20447157" to="697770118#2" departLane="best" type="veh_passenger" departSpeed="max"/>
    <trip id="veh95" depart="158.14" from="141054101" to="22767299#2" departLane="best" type="veh_passenger" departSpeed="max"/>
    <trip id="veh96" depart="159.81" from="57372785#2" to="-383283745#1" departLane="best" type="veh_passenger"/>
    <trip id="veh97" depart="161.47" from="118037210" to="622467607" departLane="best" type="veh_passenger"/>
    <trip id="veh98" depart="163.14" from="-20447173" to="-37522154#1" departLane="best" type="veh_passenger" departSpeed="max"/>
    <trip id="veh99" depart="164.80" from="533367174#5" to="50648723#1" departLane="best" type="veh_passenger"/>
    <trip id="veh100" depart="166.47" from="442773111" to="-475020758#2" departLane="best" type="veh_passenger" departSpeed="max"/>
    <trip id="veh101" depart="168.13" from="263684089#0" to="-37522154#1" departLane="best" type="veh_passenger"/>
    <trip id="veh102" depart="169.80" from="1021712286#1" to="1085825773#1" departLane="best" type="veh_passenger"/>
    <trip id="veh103" depart="171.46" from="1085825773#3" to="19889421#1" departLane="best" type="veh_passenger"/>
    <trip id="veh104" depart="173.13" from="-42474489#1" to="20437797#4" departLane="best" type="veh_passenger"/>
    <trip id="veh105" depart="174.79" from="-22764743#0" to="219752764#1" departLane="best" type="veh_passenger"/>
    <trip id="veh106" depart="176.46" from="19926895#1" to="135702201#1" departLane="best" type="veh_passenger"/>
    <trip id="veh107" depart="178.12" from="-56008760#1" to="-1386674014#2" departLane="best" type="veh_passenger"/>
    <trip id="veh108" depart="179.79" from="-531730073#2" to="-1284588390#1" departLane="best" type="veh_passenger"/>
    <trip id="veh109" depart="181.45" from="-20447170#1" to="174955283#7" departLane="best" type="veh_passenger"/>
    <trip id="veh110" depart="183.11" from="-22764742#0" to="531730073#3" departLane="best" type="veh_passenger"/>
    <trip id="veh111" depart="184.78" from="-888206251" to="-1336301651#0" departLane="best" type="veh_passenger"/>
    <trip id="veh112" depart="186.44" from="158691269#0" to="-140038552#0" departLane="best" type="veh_passenger"/>
    <trip id="veh113" depart="188.11" from="55874612" to="673347936#0" departLane="best" type="veh_passenger"/>
    <trip id="veh114" depart="189.77" from="1449718283" to="-339736822#0" departLane="best" type="veh_passenger"/>
    <trip id="veh115" depart="191.44" from="331449373" to="-1266035953#1" departLane="best" type="veh_passenger"/>
    <trip id="veh116" depart="193.10" from="-1451973679#3" to="-44848109#2" departLane="best" type="veh_passenger" departSpeed="max"/>
    <trip id="veh117" depart="194.77" from="19889421#1" to="417206210#0" departLane="best" type="veh_passenger"/>
    <trip id="veh118" depart="196.43" from="180964038" to="-23791684#3" departLane="best" type="veh_passenger"/>
    <trip id="veh119" depart="198.10" from="-41656939#4" to="15229923#0" departLane="best" type="veh_passenger"/>
    <trip id="veh120" depart="199.76" from="376385690#3" to="164014457#1" departLane="best" type="veh_passenger"/>
    <trip id="veh121" depart="201.43" from="-51344612" to="408197311#4" departLane="best" type="veh_passenger" departSpeed="max"/>
    <trip id="veh122" depart="203.09" from="-783248710#2" to="174955283#3" departLane="best" type="veh_passenger"/>
    <trip id="veh123" depart="204.76" from="478028845#0" to="20437775#2" departLane="best" type="veh_passenger"/>
    <trip id="veh124" depart="206.42" from="-22764741#0" to="1080038451" departLane="best" type="veh_passenger"/>
    <trip id="veh125" depart="208.08" from="442773109#0" to="112136919#1" departLane="best" type="veh_passenger"/>
    <trip id="veh126" depart="209.75" from="-19889421#2" to="-1241456239#0" departLane="best" type="veh_passenger"/>
    <trip id="veh127" depart="211.41" from="140997931#0" to="362262995" departLane="best" type="veh_passenger"/>
    <trip id="veh128" depart="213.08" from="1085819257#2" to="-148639641" departLane="best" type="veh_passenger"/>
    <trip id="veh129" depart="214.74" from="15229946#1" to="-374675896#1" departLane="best" type="veh_passenger"/>
    <trip id="veh130" depart="216.41" from="20447152" to="1266035952#0" departLane="best" type="veh_passenger"/>
    <trip id="veh131" depart="218.07" from="-480645126#2" to="-1425361370#1" departLane="best" type="veh_passenger"/>
    <trip id="veh132" depart="219.74" from="1292367301" to="-1358168772#0" departLane="best" type="veh_passenger"/>
    <trip id="veh133" depart="221.40" from="-148639641" to="1026143474#1" departLane="best" type="veh_passenger"/>
    <trip id="veh134" depart="223.07" from="179936986" to="1386672970#0" departLane="best" type="veh_passenger"/>
    <trip id="veh135" depart="224.73" from="928846834#3" to="-55874614#0" departLane="best" type="veh_passenger"/>
    <trip id="veh136" depart="226.40" from="534020346" to="-51344613" departLane="best" type="veh_passenger"/>
    <trip id="veh137" depart="228.06" from="-42294196#1" to="-97050361" departLane="best" type="veh_passenger" departSpeed="max"/>
    <trip id="veh138" depart="229.73" from="-112515772" to="233525265#0" departLane="best" type="veh_passenger"/>
    <trip id="veh139" depart="231.39" from="-1413048973" to="15230000#0" departLane="best" type="veh_passenger"/>
    <trip id="veh140" depart="233.05" from="-134233676#7" to="-978781529#5" departLane="best" type="veh_passenger"/>
    <trip id="veh141" depart="234.72" from="-358699710" to="697864946" departLane="best" type="veh_passenger"/>
    <trip id="veh142" depart="236.38" from="-447214434" to="-55874614#0" departLane="best" type="veh_passenger"/>
    <trip id="veh143" depart="238.05" from="-475020758#1" to="-15229923#1" departLane="best" type="veh_passenger"/>
    <trip id="veh144" depart="239.71" from="164014464" to="-44848109#0" departLane="best" type="veh_passenger"/>
    <trip id="veh145" depart="241.38" from="-408197310#2" to="-480645125" departLane="best" type="veh_passenger"/>
    <trip id="veh146" depart="243.04" from="-55874608#0" to="406017622#3" departLane="best" type="veh_passenger"/>
    <trip id="veh147" depart="244.71" from="-233525265#1" to="-151912626" departLane="best" type="veh_passenger"/>
    <trip id="veh148" depart="246.37" from="-531730073#1" to="140997949" departLane="best" type="veh_passenger"/>
    <trip id="veh149" depart="248.04" from="-42294196#0" to="-1435723283#0" departLane="best" type="veh_passenger"/>
    <trip id="veh150" depart="249.70" from="-55874618#3" to="758405104#3" departLane="best" type="veh_passenger"/>
    <trip id="veh151" depart="251.37" from="-97050361" to="-19926890" departLane="best" type="veh_passenger"/>
    <trip id="veh152" depart="253.03" from="19889424#1" to="233525232#1" departLane="best" type="veh_passenger"/>
    <trip id="veh153" depart="254.70" from="-42487710#0" to="408197311#0" departLane="best" type="veh_passenger"/>
    <trip id="veh154" depart="256.36" from="1454169658" to="1292367301" departLane="best" type="veh_passenger" departSpeed="max"/>
    <trip id="veh155" depart="258.02" from="1021712286#0" to="1365797490" departLane="best" type="veh_passenger" departSpeed="max"/>
    <trip id="veh156" depart="259.69" from="42979431" to="408197311#0" departLane="best" type="veh_passenger"/>
    <trip id="veh157" depart="261.35" from="-67411767#5" to="-741201990#2" departLane="best" type="veh_passenger"/>
    <trip id="veh158" depart="263.02" from="284190548#0" to="-19926082" departLane="best" type="veh_passenger"/>
    <trip id="veh159" depart="264.68" from="148638464#1" to="-50648723#1" departLane="best" type="veh_passenger"/>
    <trip id="veh160" depart="266.35" from="1284588390#0" to="131335282#3" departLane="best" type="veh_passenger"/>
    <trip id="veh161" depart="268.01" from="606061323#9" to="142757141#1" departLane="best" type="veh_passenger"/>
    <trip id="veh162" depart="269.68" from="-406017624#3" to="174970474#1" departLane="best" type="veh_passenger"/>
    <trip id="veh163" depart="271.34" from="135702200#1" to="-44848109#1" departLane="best" type="veh_passenger"/>
    <trip id="veh164" depart="273.01" from="923058255#0" to="548881042#0" departLane="best" type="veh_passenger"/>
    <trip id="veh165" depart="274.67" from="-1344385463" to="22764742#0" departLane="best" type="veh_passenger" departSpeed="max"/>
    <trip id="veh166" depart="276.34" from="-164014452#2" to="929152594" departLane="best" type="veh_passenger"/>
    <trip id="veh167" depart="278.00" from="-374675896#0" to="19926885#1" departLane="best" type="veh_passenger"/>
    <trip id="veh168" depart="279.67" from="-1207110923#1" to="408197311#3" departLane="best" type="veh_passenger"/>
    <trip id="veh169" depart="281.33" from="-399859418#1" to="-19926885#1" departLane="best" type="veh_passenger"/>
    <trip id="veh170" depart="283.00" from="1026143467#3" to="1264647438#2" departLane="best" type="veh_passenger"/>
    <trip id="veh171" depart="284.66" from="-131339230" to="-19889427" departLane="best" type="veh_passenger"/>
    <trip id="veh172" depart="286.32" from="-647318805#0" to="135702201#1" departLane="best" type="veh_passenger"/>
    <trip id="veh173" depart="287.99" from="20447183#1" to="-164014450" departLane="best" type="veh_passenger"/>
    <trip id="veh174" depart="289.65" from="42472859#0" to="-55874618#2" departLane="best" type="veh_passenger" departSpeed="max"/>
    <trip id="veh175" depart="291.32" from="928846834#1" to="-591266407#3" departLane="best" type="veh_passenger"/>
    <trip id="veh176" depart="292.98" from="1080038453#0" to="-55874618#2" departLane="best" type="veh_passenger"/>
    <trip id="veh177" depart="294.65" from="-140038552#0" to="67285977#0" departLane="best" type="veh_passenger"/>
    <trip id="veh178" depart="296.31" from="1413048971#0" to="284190548#2" departLane="best" type="veh_passenger"/>
    <trip id="veh179" depart="297.98" from="-19889421#1" to="112136935" departLane="best" type="veh_passenger"/>
    <trip id="veh180" depart="299.64" from="-42472859#2" to="-408197311#7" departLane="best" type="veh_passenger"/>
    <trip id="veh181" depart="301.31" from="-701943514" to="174955279" departLane="best" type="veh_passenger"/>
    <trip id="veh182" depart="302.97" from="928846830#0" to="14464640#1" departLane="best" type="veh_passenger"/>
    <trip id="veh183" depart="304.64" from="392689407#5" to="731187532" departLane="best" type="veh_passenger"/>
    <trip id="veh184" depart="306.30" from="442773117" to="20447189" departLane="best" type="veh_passenger" departSpeed="max"/>
    <trip id="veh185" depart="307.97" from="-112136919#0" to="442773112#0" departLane="best" type="veh_passenger"/>
    <trip id="veh186" depart="309.63" from="55874615" to="601666743#1" departLane="best" type="veh_passenger"/>
    <trip id="veh187" depart="311.29" from="-531734424#3" to="233629756#0" departLane="best" type="veh_passenger"/>
    <trip id="veh188" depart="312.96" from="158723728" to="-60844538" departLane="best" type="veh_passenger" departSpeed="max"/>
    <trip id="veh189" depart="314.62" from="-27215486#1" to="-98526020" departLane="best" type="veh_passenger"/>
    <trip id="veh190" depart="316.29" from="141054099" to="-606061323#17" departLane="best" type="veh_passenger" departSpeed="max"/>
    <trip id="veh191" depart="317.95" from="-531717718" to="174955283#9" departLane="best" type="veh_passenger" departSpeed="max"/>
    <trip id="veh192" depart="319.62" from="-50648723#1" to="1146934356#0" departLane="best" type="veh_passenger"/>
    <trip id="veh193" depart="321.28" from="-140997927#1" to="-50069035#1" departLane="best" type="veh_passenger"/>
    <trip id="veh194" depart="322.95" from="-148639641" to="1105826279#0" departLane="best" type="veh_passenger"/>
    <trip id="veh195" depart="324.61" from="-531717718" to="-606061323#4" departLane="best" type="veh_passenger" departSpeed="max"/>
    <trip id="veh196" depart="326.28" from="-1219865413#4" to="929152594" departLane="best" type="veh_passenger"/>
    <trip id="veh197" depart="327.94" from="141054098" to="-1266035952#1" departLane="best" type="veh_passenger" departSpeed="max"/>
    <trip id="veh198" depart="329.61" from="1386672970#1" to="60844541#1" departLane="best" type="veh_passenger"/>
    <trip id="veh199" depart="331.27" from="-134233676#6" to="1087485089#1" departLane="best" type="veh_passenger"/>
    <trip id="veh200" depart="332.94" from="442773112#1" to="-28548656#1" departLane="best" type="veh_passenger"/>
    <trip id="veh201" depart="334.60" from="-164014455#0" to="-1319044642#4" departLane="best" type="veh_passenger"/>
    <trip id="veh202" depart="336.26" from="20447162" to="316905861#3" departLane="best" type="veh_passenger"/>
    <trip id="veh203" depart="337.93" from="919938032#1" to="-363081449#4" departLane="best" type="veh_passenger"/>
    <trip id="veh204" depart="339.59" from="392689407#9" to="417206210#0" departLane="best" type="veh_passenger"/>
    <trip id="veh205" depart="341.26" from="-52781449#1" to="606974212#0" departLane="best" type="veh_passenger"/>
    <trip id="veh206" depart="342.92" from="447214434" to="20444245#0" departLane="best" type="veh_passenger"/>
    <trip id="veh207" depart="344.59" from="529399885" to="-55874606#0" departLane="best" type="veh_passenger" departSpeed="max"/>
    <trip id="veh208" depart="346.25" from="-60844537#1" to="697864946" departLane="best" type="veh_passenger"/>
    <trip id="veh209" depart="347.92" from="-97236176" to="-47519280#8" departLane="best" type="veh_passenger"/>
    <trip id="veh210" depart="349.58" from="408197310#1" to="-55874606#0" departLane="best" type="veh_passenger"/>
    <trip id="veh211" depart="351.25" from="-921104673#5" to="140997936" departLane="best" type="veh_passenger" departSpeed="max"/>
    <trip id="veh212" depart="352.91" from="-140997952" to="50069684" departLane="best" type="veh_passenger"/>
    <trip id="veh213" depart="354.58" from="14464658#1" to="-1292367300#3" departLane="best" type="veh_passenger"/>
    <trip id="veh214" depart="356.24" from="-1430504836" to="-442436506#1" departLane="best" type="veh_passenger"/>
    <trip id="veh215" depart="357.91" from="-929152594" to="410000810#4" departLane="best" type="veh_passenger" departSpeed="max"/>
    <trip id="veh216" depart="359.57" from="399859418#1" to="23791684#6" departLane="best" type="veh_passenger"/>
    <trip id="veh217" depart="361.23" from="-140997949" to="-548881043" departLane="best" type="veh_passenger"/>
    <trip id="veh218" depart="362.90" from="233629766" to="-1174646207" departLane="best" type="veh_passenger"/>
    <trip id="veh219" depart="364.56" from="-27215486#0" to="-1086025331#2" departLane="best" type="veh_passenger"/>
    <trip id="veh220" depart="366.23" from="-52502613" to="-52502294#0" departLane="best" type="veh_passenger"/>
    <trip id="veh221" depart="367.89" from="1087353122" to="-20437775#0" departLane="best" type="veh_passenger"/>
    <trip id="veh222" depart="369.56" from="1344385469#0" to="-1450296349#2" departLane="best" type="veh_passenger"/>
    <trip id="veh223" depart="371.22" from="-83487127#3" to="57372785#3" departLane="best" type="veh_passenger"/>
    <trip id="veh224" depart="372.89" from="19889413" to="1386674014#1" departLane="best" type="veh_passenger"/>
    <trip id="veh225" depart="374.55" from="-174955294#1" to="606061323#14" departLane="best" type="veh_passenger"/>
    <trip id="veh226" depart="376.22" from="-23791684#3" to="548881042#0" departLane="best" type="veh_passenger"/>
    <trip id="veh227" depart="377.88" from="-67144889#1" to="1362348437" departLane="best" type="veh_passenger"/>
    <trip id="veh228" depart="379.55" from="1451973679#2" to="-55874620" departLane="best" type="veh_passenger"/>
    <trip id="veh229" depart="381.21" from="928846834#2" to="52502593#0" departLane="best" type="veh_passenger"/>
    <trip id="veh230" depart="382.88" from="-673347936#1" to="-531734424#3" departLane="best" type="veh_passenger"/>
    <trip id="veh231" depart="384.54" from="-57372785#1" to="-15389892#0" departLane="best" type="veh_passenger"/>
    <trip id="veh232" depart="386.21" from="1316999772#2" to="1086024427#3" departLane="best" type="veh_passenger"/>
    <trip id="veh233" depart="387.87" from="1026161829#1" to="1454456335#2" departLane="best" type="veh_passenger"/>
    <trip id="veh234" depart="389.53" from="-1086025330#1" to="140997927#1" departLane="best" type="veh_passenger"/>
    <trip id="veh235" depart="391.20" from="19926895#1" to="1365797489" departLane="best" type="veh_passenger"/>
    <trip id="veh236" depart="392.86" from="-1026143467#3" to="140997936" departLane="best" type="veh_passenger"/>
    <trip id="veh237" depart="394.53" from="606061323#16" to="20447165#1" departLane="best" type="veh_passenger"/>
    <trip id="veh238" depart="396.19" from="1273266154#1" to="-606061323#17" departLane="best" type="veh_passenger"/>
    <trip id="veh239" depart="397.86" from="-233525265#1" to="1085820569#2" departLane="best" type="veh_passenger"/>
    <trip id="veh240" depart="399.52" from="-142757141#0" to="-334153736" departLane="best" type="veh_passenger"/>
    <trip id="veh241" depart="401.19" from="-37522154#2" to="-140997933" departLane="best" type="veh_passenger"/>
    <trip id="veh242" depart="402.85" from="-47519280#12" to="20441563#1" departLane="best" type="veh_passenger"/>
    <trip id="veh243" depart="404.52" from="1094653821#3" to="1315576913#1" departLane="best" type="veh_passenger"/>
    <trip id="veh244" depart="406.18" from="-1365797490" to="-15229923#0" departLane="best" type="veh_passenger"/>
    <trip id="veh245" depart="407.85" from="410000810#4" to="219752764#2" departLane="best" type="veh_passenger"/>