<?xml version="1.0" encoding="UTF-8"?>

<!-- generated on 2026-01-08 07:27:32.503141 by Eclipse SUMO osmWebWizard.py v1_25_0+0000-ac6c5a6752d
<configuration>
    <net-file value="D:\IP1\Project\Code\Simulation\2026-01-08-07-26-34\osm.net.xml.gz"/>
    <output-trip-file value="D:\IP1\Project\Code\Simulation\2026-01-08-07-26-34\osm.bicycle.trips.xml"/>
    <route-file value="D:\IP1\Project\Code\Simulation\2026-01-08-07-26-34\osm.bicycle.rou.xml"/>
    <prefix value="bike"/>
    <trip-attributes value="departLane=&quot;best&quot;"/>
    <fringe-start-attributes value="departSpeed=&quot;max&quot;"/>
    <vehicle-class value="bicycle"/>
    <fringe-factor value="2"/>
    <edge-permission value="bicycle"/>
    <via-edge-types value="highway.motorway,highway.motorway_link,highway.trunk_link,highway.primary_link,highway.secondary_link,highway.tertiary_link"/>
    <max-distance value="8000.0"/>
    <remove-loops value="True"/>
    <insertion-density value="6.0"/>
</configuration>
-->

<routes xmlns:xsi="http://www.w3.org/2001/XMLSchema-instance" xsi:noNamespaceSchemaLocation="http://sumo.dlr.de/xsd/routes_file.xsd">
    <vType id="bike_bicycle" vClass="bicycle"/>
    <trip id="bike0" depart="0.00" from="140997936" to="-1120577366#0" departLane="best" type="bike_bicycle"/>
    <trip id="bike1" depart="1.39" from="-316402808#2" to="-23791684#4" departLane="best" type="bike_bicycle"/>
    <trip id="bike2" depart="2.77" from="23791684#3" to="19889415#1" departLane="best" type="bike_bicycle"/>
    <trip id="bike3" depart="4.16" from="597837604#6" to="-1307080229#1" departLane="best" type="bike_bicycle"/>
    <trip id="bike4" depart="5.55" from="-75488752#2" to="-1123466931" departLane="best" type="bike_bicycle"/>
    <trip id="bike5" depart="6.93" from="-219716162" to="115229335" departLane="best" type="bike_bicycle"/>
    <trip id="bike6" depart="8.32" from="-1103872211#1" to="-20443381#4" departLane="best" type="bike_bicycle"/>
    <trip id="bike7" depart="9.71" from="142054671#2" to="1241456246#6" departLane="best" type="bike_bicycle"/>
    <trip id="bike8" depart="11.09" from="-219752764#5" to="1344385465" departLane="best" type="bike_bicycle"/>
    <trip id="bike9" depart="12.48" from="408853457#1" to="-1026143467#3" departLane="best" type="bike_bicycle"/>
    <trip id="bike10" depart="13.87" from="406513808#3" to="219597958#0" departLane="best" type="bike_bicycle"/>
    <trip id="bike11" depart="15.25" from="-48515887#0" to="-142759472#0" departLane="best" type="bike_bicycle"/>
    <trip id="bike12" depart="16.64" from="867981793" to="-52502593#1" departLane="best" type="bike_bicycle"/>
    <trip id="bike13" depart="18.03" from="-129628615#0" to="-1316999151#0" departLane="best" type="bike_bicycle"/>
    <trip id="bike14" depart="19.42" from="491692197" to="1363896190#1" departLane="best" type="bike_bicycle" departSpeed="max"/>
    <trip id="bike15" depart="20.80" from="406949421#2" to="25150411" departLane="best" type="bike_bicycle"/>
    <trip id="bike16" depart="22.19" from="1184216428" to="928846830#3" departLane="best" type="bike_bicycle"/>
    <trip id="bike17" depart="23.58" from="-591266407#0" to="1263349524#1" departLane="best" type="bike_bicycle"/>
    <trip id="bike18" depart="24.96" from="44848109#1" to="140440400#1" departLane="best" type="bike_bicycle"/>
    <trip id="bike19" depart="26.35" from="525195529" to="1320408477#1" departLane="best" type="bike_bicycle"/>
    <trip id="bike20" depart="27.74" from="20437777#1" to="-1184218162#1" departLane="best" type="bike_bicycle"/>
    <trip id="bike21" depart="29.12" from="-233629413" to="-408197311#9" departLane="best" type="bike_bicycle"/>
    <trip id="bike22" depart="30.51" from="-1241456245#1" to="-262879710#3" departLane="best" type="bike_bicycle"/>
    <trip id="bike23" depart="31.90" from="-1315613577#0" to="-384196607#3" departLane="best" type="bike_bicycle"/>
    <trip id="bike24" depart="33.28" from="1386672970#4" to="-601666709#0" departLane="best" type="bike_bicycle"/>
    <trip id="bike25" depart="34.67" from="-55158103#4" to="-219720843#1" departLane="best" type="bike_bicycle"/>
    <trip id="bike26" depart="36.06" from="-30025179#5" to="783248707#3" departLane="best" type="bike_bicycle" departSpeed="max"/>
    <trip id="bike27" depart="37.44" from="142053903#3" to="1370994932#1" departLane="best" type="bike_bicycle"/>
    <trip id="bike28" depart="38.83" from="-1451973679#0" to="25150216#1" departLane="best" type="bike_bicycle"/>
    <trip id="bike29" depart="40.22" from="-1430504836" to="-67144792#0" departLane="best" type="bike_bicycle"/>
    <trip id="bike30" depart="41.60" from="96152229#7" to="1435723284" departLane="best" type="bike_bicycle"/>
    <trip id="bike31" depart="42.99" from="1221117015" to="20437786" departLane="best" type="bike_bicycle"/>
    <trip id="bike32" depart="44.38" from="48240421#1" to="370555488" departLane="best" type="bike_bicycle"/>
    <trip id="bike33" depart="45.76" from="-233629756#13" to="-112515783" departLane="best" type="bike_bicycle"/>
    <trip id="bike34" depart="47.15" from="-42294716" to="-348546674" departLane="best" type="bike_bicycle" departSpeed="max"/>
    <trip id="bike35" depart="48.54" from="-20447165#0" to="821520266#3" departLane="best" type="bike_bicycle"/>
    <trip id="bike36" depart="49.92" from="55158103#4" to="-47519280#12" departLane="best" type="bike_bicycle"/>
    <trip id="bike37" depart="51.31" from="142060689" to="-739839110" departLane="best" type="bike_bicycle" departSpeed="max"/>
    <trip id="bike38" depart="52.70" from="67144818#1" to="1026143468#1" departLane="best" type="bike_bicycle"/>
    <trip id="bike39" depart="54.09" from="-30025158#0" to="-30024907" departLane="best" type="bike_bicycle"/>
    <trip id="bike40" depart="55.47" from="1241456245#0" to="-326551906#3" departLane="best" type="bike_bicycle"/>
    <trip id="bike41" depart="56.86" from="1307201007#2" to="647318802#3" departLane="best" type="bike_bicycle"/>
    <trip id="bike42" depart="58.25" from="-67123673#1" to="-233629756#2" departLane="best" type="bike_bicycle" departSpeed="max"/>
    <trip id="bike43" depart="59.63" from="97236182" to="1180768761#4" departLane="best" type="bike_bicycle" departSpeed="max"/>
    <trip id="bike44" depart="61.02" from="-128130064#2" to="-1186899476" departLane="best" type="bike_bicycle"/>
    <trip id="bike45" depart="62.41" from="-1333691363#1" to="142053903#6" departLane="best" type="bike_bicycle" departSpeed="max"/>
    <trip id="bike46" depart="63.79" from="-119372734#3" to="-673347937#1" departLane="best" type="bike_bicycle"/>
    <trip id="bike47" depart="65.18" from="928846809#0" to="545262878#1" departLane="best" type="bike_bicycle"/>
    <trip id="bike48" depart="66.57" from="-1070810243#3" to="241958424" departLane="best" type="bike_bicycle" departSpeed="max"/>
    <trip id="bike49" depart="67.95" from="161287414#0" to="1219865413#1" departLane="best" type="bike_bicycle"/>
    <trip id="bike50" depart="69.34" from="-30025179#4" to="1445288276#1" departLane="best" type="bike_bicycle"/>
    <trip id="bike51" depart="70.73" from="-1333777282#1" to="-931322319#1" departLane="best" type="bike_bicycle"/>
    <trip id="bike52" depart="72.11" from="-928846820#0" to="889332403#0" departLane="best" type="bike_bicycle"/>
    <trip id="bike53" depart="73.50" from="55158103#0" to="-326551912" departLane="best" type="bike_bicycle"/>
    <trip id="bike54" depart="74.89" from="1085819257#0" to="-164014454" departLane="best" type="bike_bicycle"/>
    <trip id="bike55" depart="76.27" from="67124651#2" to="56008760#2" departLane="best" type="bike_bicycle"/>
    <trip id="bike56" depart="77.66" from="-390227487#5" to="1430504836" departLane="best" type="bike_bicycle"/>
    <trip id="bike57" depart="79.05" from="134233676#2" to="-1425361370#1" departLane="best" type="bike_bicycle"/>
    <trip id="bike58" depart="80.43" from="30024982#0" to="1221795558#1" departLane="best" type="bike_bicycle"/>
    <trip id="bike59" depart="81.82" from="326551905" to="1198022234#0" departLane="best" type="bike_bicycle"/>
    <trip id="bike60" depart="83.21" from="-1013207897#1" to="-490478070#3" departLane="best" type="bike_bicycle" departSpeed="max"/>
    <trip id="bike61" depart="84.59" from="-1086024427#1" to="745161146#1" departLane="best" type="bike_bicycle"/>
    <trip id="bike62" depart="85.98" from="55874608#1" to="482991722#1" departLane="best" type="bike_bicycle"/>
    <trip id="bike63" depart="87.37" from="-408853457#2" to="-119858310#1" departLane="best" type="bike_bicycle" departSpeed="max"/>
    <trip id="bike64" depart="88.76" from="55874606#0" to="83492506#5" departLane="best" type="bike_bicycle" departSpeed="max"/>
    <trip id="bike65" depart="90.14" from="-1254444461" to="1097042712" departLane="best" type="bike_bicycle"/>
    <trip id="bike66" depart="91.53" from="-119859565#1" to="316397919#2" departLane="best" type="bike_bicycle"/>
    <trip id="bike67" depart="92.92" from="30025158#0" to="-1373121530" departLane="best" type="bike_bicycle"/>
    <trip id="bike68" depart="94.30" from="-97050351" to="1251172848#2" departLane="best" type="bike_bicycle" departSpeed="max"/>
    <trip id="bike69" depart="95.69" from="-30025158#1" to="574818304#0" departLane="best" type="bike_bicycle"/>
    <trip id="bike70" depart="97.08" from="-758405104#3" to="-22737021#0" departLane="best" type="bike_bicycle"/>
    <trip id="bike71" depart="98.46" from="1186917418#3" to="257982302#1" departLane="best" type="bike_bicycle"/>
    <trip id="bike72" depart="99.85" from="-19926892" to="-450214411" departLane="best" type="bike_bicycle" departSpeed="max"/>
    <trip id="bike73" depart="101.24" from="97050352#0" to="147263992#0" departLane="best" type="bike_bicycle"/>
    <trip id="bike74" depart="102.62" from="-878661954" to="1184218154" departLane="best" type="bike_bicycle" departSpeed="max"/>
    <trip id="bike75" depart="104.01" from="-1346680752" to="-241958416" departLane="best" type="bike_bicycle"/>
    <trip id="bike76" depart="105.40" from="-48240419#0" to="134233679#0" departLane="best" type="bike_bicycle"/>
    <trip id="bike77" depart="106.78" from="-233629756#6" to="-233629756#9" departLane="best" type="bike_bicycle"/>
    <trip id="bike78" depart="108.17" from="-1210878267#1" to="142059680#1" departLane="best" type="bike_bicycle"/>
    <trip id="bike79" depart="109.56" from="-233629756#12" to="67197671#1" departLane="best" type="bike_bicycle"/>
    <trip id="bike80" depart="110.94" from="52502593#1" to="-1241709129#2" departLane="best" type="bike_bicycle"/>
    <trip id="bike81" depart="112.33" from="-242894146#4" to="174970474#1" departLane="best" type="bike_bicycle"/>
    <trip id="bike82" depart="113.72" from="-208425612#1" to="-1384063760#0" departLane="best" type="bike_bicycle" departSpeed="max"/>
    <trip id="bike83" depart="115.10" from="742248996#1" to="1316117835#1" departLane="best" type="bike_bicycle"/>
    <trip id="bike84" depart="116.49" from="-961600908#2" to="384196612" departLane="best" type="bike_bicycle"/>
    <trip id="bike85" depart="117.88" from="407969580" to="-19889415#3" departLane="best" type="bike_bicycle"/>
    <trip id="bike86" depart="119.27" from="-131002535#2" to="-929267979" departLane="best" type="bike_bicycle"/>
    <trip id="bike87" depart="120.65" from="-761587159" to="1073435067#0" departLane="best" type="bike_bicycle" departSpeed="max"/>
    <trip id="bike88" depart="122.04" from="233525232#0" to="192763638#0" departLane="best" type="bike_bicycle"/>
    <trip id="bike89" depart="123.43" from="956357512#3" to="-1319044642#14" departLane="best" type="bike_bicycle"/>
    <trip id="bike90" depart="124.81" from="-673417487#1" to="-52781449#0" departLane="best" type="bike_bicycle" departSpeed="max"/>
    <trip id="bike91" depart="126.20" from="525191732#6" to="-30025028#0" departLane="best" type="bike_bicycle"/>
    <trip id="bike92" depart="127.59" from="-174955296#2" to="-97236182" departLane="best" type="bike_bicycle"/>
    <trip id="bike93" depart="128.97" from="-75488752#1" to="-384196608" departLane="best" type="bike_bicycle"/>
    <trip id="bike94" depart="130.36" from="-27215486#1" to="729375661#6" departLane="best" type="bike_bicycle"/>
    <trip id="bike95" depart="131.75" from="-917963188#2" to="548881038#1" departLane="best" type="bike_bicycle"/>
    <trip id="bike96" depart="133.13" from="119859564#2" to="-119352416" departLane="best" type="bike_bicycle"/>
    <trip id="bike97" depart="134.52" from="98526020" to="491691138#1" departLane="best" type="bike_bicycle" departSpeed="max"/>
    <trip id="bike98" depart="135.91" from="928846805#0" to="739839109" departLane="best" type="bike_bicycle"/>
    <trip id="bike99" depart="137.29" from="504282966#2" to="-14778982" departLane="best" type="bike_bicycle"/>
    <trip id="bike100" depart="138.68" from="1023699861#2" to="-22767294#2" departLane="best" type="bike_bicycle"/>
    <trip id="bike101" depart="140.07" from="-67198498" to="-119859565#1" departLane="best" type="bike_bicycle"/>
    <trip id="bike102" depart="141.45" from="-591266407#3" to="96152205#2" departLane="best" type="bike_bicycle"/>
    <trip id="bike103" depart="142.84" from="-30025170#0" to="384196610#3" departLane="best" type="bike_bicycle"/>
    <trip id="bike104" depart="144.23" from="-928846824#1" to="-928846806#0" departLane="best" type="bike_bicycle"/>
    <trip id="bike105" depart="145.61" from="867981795" to="97050360#0" departLane="best" type="bike_bicycle"/>
    <trip id="bike106" depart="147.00" from="1220380449" to="23791993#1" departLane="best" type="bike_bicycle" departSpeed="max"/>
    <trip id="bike107" depart="148.39" from="-142059675" to="-42294196#0" departLane="best" type="bike_bicycle"/>
    <trip id="bike108" depart="149.77" from="928846800#1" to="1333691372#1" departLane="best" type="bike_bicycle"/>
    <trip id="bike109" depart="151.16" from="119352416" to="30024994#1" departLane="best" type="bike_bicycle" departSpeed="max"/>
    <trip id="bike110" depart="152.55" from="-1186899473" to="1339086266#1" departLane="best" type="bike_bicycle"/>
    <trip id="bike111" depart="153.94" from="1085825773#3" to="531723600#0" departLane="best" type="bike_bicycle"/>
    <trip id="bike112" depart="155.32" from="-142060684#1" to="919938032#5" departLane="best" type="bike_bicycle" departSpeed="max"/>
    <trip id="bike113" depart="156.71" from="-1241599487#2" to="-186354544#4" departLane="best" type="bike_bicycle"/>
    <trip id="bike114" depart="158.10" from="1318077893#0" to="198187825#3" departLane="best" type="bike_bicycle"/>
    <trip id="bike115" depart="159.48" from="-241958407" to="-136072334#0" departLane="best" type="bike_bicycle" departSpeed="max"/>
    <trip id="bike116" depart="160.87" from="59267950#0" to="-30024892" departLane="best" type="bike_bicycle"/>
    <trip id="bike117" depart="162.26" from="1317382897#1" to="1409244964#0" departLane="best" type="bike_bicycle"/>
    <trip id="bike118" depart="163.64" from="-741201990#1" to="1338308401" departLane="best" type="bike_bicycle"/>
    <trip id="bike119" depart="165.03" from="1127508110#0" to="771871382#1" departLane="best" type="bike_bicycle"/>
    <trip id="bike120" depart="166.42" from="-20437777#3" to="23791681#0" departLane="best" type="bike_bicycle"/>
    <trip id="bike121" depart="167.80" from="-242894149#1" to="-740552717" departLane="best" type="bike_bicycle"/>
    <trip id="bike122" depart="169.19" from="1454780932#6" to="-42474506#3" departLane="best" type="bike_bicycle"/>
    <trip id="bike123" depart="170.58" from="-42294993#3" to="30025174#2" departLane="best" type="bike_bicycle"/>
    <trip id="bike124" depart="171.96" from="-1216751089#0" to="1026143467#0" departLane="best" type="bike_bicycle"/>
    <trip id="bike125" depart="173.35" from="978781529#5" to="97050366#0" departLane="best" type="bike_bicycle"/>
    <trip id="bike126" depart="174.74" from="-121860445#0" to="-22764857#0" departLane="best" type="bike_bicycle"/>
    <trip id="bike127" depart="176.12" from="-30025170#0" to="761587159" departLane="best" type="bike_bicycle"/>
    <trip id="bike128" depart="177.51" from="55874618#3" to="59267950#0" departLane="best" type="bike_bicycle"/>
    <trip id="bike129" depart="178.90" from="-55158100#7" to="-1435723283#0" departLane="best" type="bike_bicycle"/>
    <trip id="bike130" depart="180.28" from="474362198#0" to="22737008#3" departLane="best" type="bike_bicycle" departSpeed="max"/>
    <trip id="bike131" depart="181.67" from="1346090337" to="96152229#11" departLane="best" type="bike_bicycle"/>
    <trip id="bike132" depart="183.06" from="142060075" to="-1041940218#0" departLane="best" type="bike_bicycle"/>
    <trip id="bike133" depart="184.44" from="42294993#0" to="-42474489#0" departLane="best" type="bike_bicycle"/>
    <trip id="bike134" depart="185.83" from="143751845" to="783628557#1" departLane="best" type="bike_bicycle" departSpeed="max"/>
    <trip id="bike135" depart="187.22" from="-1319044642#6" to="1263534153#0" departLane="best" type="bike_bicycle"/>
    <trip id="bike136" depart="188.61" from="-316232421#1" to="1363896194" departLane="best" type="bike_bicycle"/>
    <trip id="bike137" depart="189.99" from="219600549" to="-208425613" departLane="best" type="bike_bicycle" departSpeed="max"/>
    <trip id="bike138" depart="191.38" from="1384038647#0" to="-334153735" departLane="best" type="bike_bicycle" departSpeed="max"/>
    <trip id="bike139" depart="192.77" from="1039273706#0" to="67197671#1" departLane="best" type="bike_bicycle"/>
    <trip id="bike140" depart="194.15" from="490478070#3" to="-1315576915" departLane="best" type="bike_bicycle"/>
    <trip id="bike141" depart="195.54" from="-761587159" to="-383176690#2" departLane="best" type="bike_bicycle" departSpeed="max"/>
    <trip id="bike142" depart="196.93" from="-1013334259" to="363081449#4" departLane="best" type="bike_bicycle"/>
    <trip id="bike143" depart="198.31" from="140538729" to="-321058835" departLane="best" type="bike_bicycle"/>
    <trip id="bike144" depart="199.70" from="24341307" to="1257497138#0" departLane="best" type="bike_bicycle"/>
    <trip id="bike145" depart="201.09" from="-783248708#4" to="-1070810243#0" departLane="best" type="bike_bicycle"/>
    <trip id="bike146" depart="202.47" from="-1221429371" to="598002460" departLane="best" type="bike_bicycle"/>
    <trip id="bike147" depart="203.86" from="625124265#1" to="1241599488#1" departLane="best" type="bike_bicycle"/>
    <trip id="bike148" depart="205.25" from="47463090#1" to="1338308391#0" departLane="best" type="bike_bicycle"/>
    <trip id="bike149" depart="206.63" from="-140997937" to="-1372708229#1" departLane="best" type="bike_bicycle"/>
    <trip id="bike150" depart="208.02" from="-410000811#2" to="665629454" departLane="best" type="bike_bicycle"/>
    <trip id="bike151" depart="209.41" from="384196610#19" to="545262878#1" departLane="best" type="bike_bicycle"/>
    <trip id="bike152" depart="210.79" from="60844537#2" to="-219752764#4" departLane="best" type="bike_bicycle"/>
    <trip id="bike153" depart="212.18" from="-27038768" to="-1333691370#1" departLane="best" type="bike_bicycle"/>
    <trip id="bike154" depart="213.57" from="331449373" to="601666698#6" departLane="best" type="bike_bicycle"/>
    <trip id="bike155" depart="214.95" from="-684006411#2" to="140997936" departLane="best" type="bike_bicycle"/>
    <trip id="bike156" depart="216.34" from="-142059673#2" to="747059915#3" departLane="best" type="bike_bicycle" departSpeed="max"/>
    <trip id="bike157" depart="217.73" from="531723600#1" to="929152594" departLane="best" type="bike_bicycle"/>
    <trip id="bike158" depart="219.11" from="410000814#2" to="597837604#3" departLane="best" type="bike_bicycle"/>
    <trip id="bike159" depart="220.50" from="-1097042712" to="28548640#1" departLane="best" type="bike_bicycle" departSpeed="max"/>
    <trip id="bike160" depart="221.89" from="-47519280#10" to="75488751#0" departLane="best" type="bike_bicycle"/>
    <trip id="bike161" depart="223.28" from="399859418#3" to="55158100#2" departLane="best" type="bike_bicycle"/>
    <trip id="bike162" depart="224.66" from="410000814#1" to="-343932585#3" departLane="best" type="bike_bicycle"/>
    <trip id="bike163" depart="226.05" from="368674849#0" to="-134230455#4" departLane="best" type="bike_bicycle" departSpeed="max"/>
    <trip id="bike164" depart="227.44" from="548040154#1" to="533535799#3" departLane="best" type="bike_bicycle"/>
    <trip id="bike165" depart="228.82" from="-22737644#1" to="444110088#1" departLane="best" type="bike_bicycle"/>
    <trip id="bike166" depart="230.21" from="-931322318" to="-442773112#0" departLane="best" type="bike_bicycle" departSpeed="max"/>
    <trip id="bike167" depart="231.60" from="384196610#0" to="-243662304#0" departLane="best" type="bike_bicycle"/>
    <trip id="bike168" depart="232.98" from="-1094653821#9" to="-19926885#3" departLane="best" type="bike_bicycle"/>
    <trip id="bike169" depart="234.37" from="-449717737#1" to="55158100#4" departLane="best" type="bike_bicycle"/>
    <trip id="bike170" depart="235.76" from="922985789" to="-384196610#14" departLane="best" type="bike_bicycle"/>
    <trip id="bike171" depart="237.14" from="141054099" to="-758405104#2" departLane="best" type="bike_bicycle" departSpeed="max"/>
    <trip id="bike172" depart="238.53" from="931322319#0" to="121860434#1" departLane="best" type="bike_bicycle"/>
    <trip id="bike173" depart="239.92" from="758405104#3" to="-1352935380" departLane="best" type="bike_bicycle"/>
    <trip id="bike174" depart="241.30" from="928846807#6" to="-164014453#0" departLane="best" type="bike_bicycle"/>
    <trip id="bike175" depart="242.69" from="906703229#8" to="-337850492#0" departLane="best" type="bike_bicycle"/>
    <trip id="bike176" depart="244.08" from="-1319044652#1" to="-931322319#0" departLane="best" type="bike_bicycle"/>
    <trip id="bike177" depart="245.46" from="233525223#0" to="-47463291" departLane="best" type="bike_bicycle"/>
    <trip id="bike178" depart="246.85" from="1339086267" to="118192675#0" departLane="best" type="bike_bicycle"/>
    <trip id="bike179" depart="248.24" from="-601666717" to="1319044650#1" departLane="best" type="bike_bicycle"/>
    <trip id="bike180" depart="249.62" from="-297105553#0" to="233525216#3" departLane="best" type="bike_bicycle"/>
    <trip id="bike181" depart="251.01" from="-1013334248#2" to="739173544#0" departLane="best" type="bike_bicycle"/>
    <trip id="bike182" depart="252.40" from="1186910725#1" to="241958407" departLane="best" type="bike_bicycle"/>
    <trip id="bike183" depart="253.78" from="250683470#0" to="183301162#0" departLane="best" type="bike_bicycle"/>
    <trip id="bike184" depart="255.17" from="-533535799#4" to="-1241709125#1" departLane="best" type="bike_bicycle"/>
    <trip id="bike185" depart="256.56" from="1445288276#0" to="-51344613" departLane="best" type="bike_bicycle" departSpeed="max"/>
    <trip id="bike186" depart="257.95" from="-418939974#1" to="52502407" departLane="best" type="bike_bicycle" departSpeed="max"/>
    <trip id="bike187" depart="259.33" from="219752764#0" to="-42487710#2" departLane="best" type="bike_bicycle"/>
    <trip id="bike188" depart="260.72" from="-414507709#0" to="-83487127#1" departLane="best" type="bike_bicycle"/>
    <trip id="bike189" depart="262.11" from="-673347937#1" to="-417206210#0" departLane="best" type="bike_bicycle"/>
    <trip id="bike190" depart="263.49" from="-1358237067" to="-920710232#4" departLane="best" type="bike_bicycle" departSpeed="max"/>
    <trip id="bike191" depart="264.88" from="768494055#0" to="19889421#2" departLane="best" type="bike_bicycle" departSpeed="max"/>
    <trip id="bike192" depart="266.27" from="624498954#4" to="1384038645#5" departLane="best" type="bike_bicycle"/>
    <trip id="bike193" depart="267.65" from="-400836722" to="1241774865#0" departLane="best" type="bike_bicycle"/>
    <trip id="bike194" depart="269.04" from="-1013207897#1" to="-406949420" departLane="best" type="bike_bicycle" departSpeed="max"/>
    <trip id="bike195" depart="270.43" from="-791556261#0" to="1335720209#1" departLane="best" type="bike_bicycle"/>
    <trip id="bike196" depart="271.81" from="142060684#0" to="1071128134#2" departLane="best" type="bike_bicycle" departSpeed="max"/>
    <trip id="bike197" depart="273.20" from="-908938112#1" to="-22767294#1" departLane="best" type="bike_bicycle" departSpeed="max"/>
    <trip id="bike198" depart="274.59" from="-963470037#1" to="671113569#4" departLane="best" type="bike_bicycle"/>
    <trip id="bike199" depart="275.97" from="384196610#16" to="-15389819#0" departLane="best" type="bike_bicycle"/>
    <trip id="bike200" depart="277.36" from="-1252070089#0" to="1184216414" departLane="best" type="bike_bicycle"/>
    <trip id="bike201" depart="278.75" from="1382312890#0" to="-52502294#0" departLane="best" type="bike_bicycle"/>
    <trip id="bike202" depart="280.13" from="42472859#5" to="30025170#2" departLane="best" type="bike_bicycle"/>
    <trip id="bike203" depart="281.52" from="147267075#0" to="-241958416" departLane="best" type="bike_bicycle"/>
    <trip id="bike204" depart="282.91" from="-19889425" to="-1105826279#1" departLane="best" type="bike_bicycle"/>
    <trip id="bike205" depart="284.29" from="-257982302#0" to="1085820569#2" departLane="best" type="bike_bicycle"/>
    <trip id="bike206" depart="285.68" from="504282977#1" to="-1251172858#0" departLane="best" type="bike_bicycle"/>
    <trip id="bike207" depart="287.07" from="-720845272#2" to="142059674" departLane="best" type="bike_bicycle"/>
    <trip id="bike208" depart="288.45" from="-192763638#2" to="217333529#1" departLane="best" type="bike_bicycle"/>
    <trip id="bike209" depart="289.84" from="107470479" to="-30024601#0" departLane="best" type="bike_bicycle"/>
    <trip id="bike210" depart="291.23" from="142060976#0" to="-1026143465#2" departLane="best" type="bike_bicycle"/>
    <trip id="bike211" depart="292.62" from="26824662#2" to="344002463" departLane="best" type="bike_bicycle"/>
    <trip id="bike212" depart="294.00" from="-1319044642#10" to="-928846809#1" departLane="best" type="bike_bicycle"/>
    <trip id="bike213" depart="295.39" from="-15229946#1" to="908938112#1" departLane="best" type="bike_bicycle"/>
    <trip id="bike214" depart="296.78" from="112136924" to="-119352341" departLane="best" type="bike_bicycle"/>
    <trip id="bike215" depart="298.16" from="-26824848#2" to="52502593#1" departLane="best" type="bike_bicycle"/>
    <trip id="bike216" depart="299.55" from="-928846830#3" to="41656939#10" departLane="best" type="bike_bicycle" departSpeed="max"/>
    <trip id="bike217" depart="300.94" from="144929478#1" to="96152229#6" departLane="best" type="bike_bicycle"/>
    <trip id="bike218" depart="302.32" from="1319044641" to="863336412#6" departLane="best" type="bike_bicycle"/>
    <trip id="bike219" depart="303.71" from="59709079#5" to="1375077335" departLane="best" type="bike_bicycle"/>
    <trip id="bike220" depart="305.10" from="219716165" to="115229329" departLane="best" type="bike_bicycle"/>
    <trip id="bike221" depart="306.48" from="449717736#2" to="1241774865#0" departLane="best" type="bike_bicycle"/>
    <trip id="bike222" depart="307.87" from="606061323#15" to="298643029#1" departLane="best" type="bike_bicycle"/>
    <trip id="bike223" depart="309.26" from="-968851708" to="-316397918#2" departLane="best" type="bike_bicycle"/>
    <trip id="bike224" depart="310.64" from="-262879710#4" to="1428236539#2" departLane="best" type="bike_bicycle"/>
    <trip id="bike225" depart="312.03" from="30025158#0" to="1186917418#6" departLane="best" type="bike_bicycle"/>
    <trip id="bike226" depart="313.42" from="-1225164380" to="-406513808#1" departLane="best" type="bike_bicycle"/>
    <trip id="bike227" depart="314.80" from="-316232417#0" to="-48240412#2" departLane="best" type="bike_bicycle"/>
    <trip id="bike228" depart="316.19" from="1187867703#1" to="-140999329#0" departLane="best" type="bike_bicycle"/>
    <trip id="bike229" depart="317.58" from="-233629771#3" to="20447189" departLane="best" type="bike_bicycle"/>
    <trip id="bike230" depart="318.96" from="20441565" to="-1220380456#0" departLane="best" type="bike_bicycle"/>
    <trip id="bike231" depart="320.35" from="-684607203#0" to="1225936930#1" departLane="best" type="bike_bicycle"/>
    <trip id="bike232" depart="321.74" from="-720966390#4" to="-218651824#1" departLane="best" type="bike_bicycle"/>
    <trip id="bike233" depart="323.12" from="-745161146#0" to="67144818#1" departLane="best" type="bike_bicycle"/>
    <trip id="bike234" depart="324.51" from="1307201006" to="211200143" departLane="best" type="bike_bicycle" departSpeed="max"/>
    <trip id="bike235" depart="325.90" from="520495295#0" to="331449373" departLane="best" type="bike_bicycle"/>
    <trip id="bike236" depart="327.29" from="-597837601#1" to="-1026143466#3" departLane="best" type="bike_bicycle"/>
    <trip id="bike237" depart="328.67" from="-517877442#2" to="30025270#1" departLane="best" type="bike_bicycle"/>
    <trip id="bike238" depart="330.06" from="51344615#0" to="880761726" departLane="best" type="bike_bicycle"/>
    <trip id="bike239" depart="331.45" from="-741201990#0" to="30024991" departLane="best" type="bike_bicycle"/>
    <trip id="bike240" depart="332.83" from="119398513#0" to="1363896188#3" departLane="best" type="bike_bicycle"/>
    <trip id="bike241" depart="334.22" from="-219752764#6" to="-233629756#3" departLane="best" type="bike_bicycle"/>
    <trip id="bike242" depart="335.61" from="-847303644#0" to="-112136944" departLane="best" type="bike_bicycle"/>
    <trip id="bike243" depart="336.99" from="-482015508#1" to="19926885#2" departLane="best" type="bike_bicycle"/>
    <trip id="bike244" depart="338.38" from="-67411767#5" to="-1454456335#2" departLane="best" type="bike_bicycle"/>