<?xml version="1.0" encoding="UTF-8"?>

<!-- generated on 2026-01-08 07:28:35.134628 by Eclipse SUMO osmWebWizard.py v1_25_0+0000-ac6c5a6752d
<configuration>
    <net-file value="D:\IP1\Project\Code\Simulation\2026-01-08-07-26-34\osm.net.xml.gz"/>
    <output-trip-file value="D:\IP1\Project\Code\Simulation\2026-01-08-07-26-34\osm.pedestrian.trips.xml"/>
    <route-file value="D:\IP1\Project\Code\Simulation\2026-01-08-07-26-34\osm.pedestrian.rou.xml"/>
    <pedestrians value="True"/>
    <prefix value="ped"/>
    <vehicle-class value="pedestrian"/>
    <fringe-factor value="1"/>
    <seed value="44"/>
    <max-distance value="2000.0"/>
    <insertion-density value="10.0"/>
</configuration>
-->

<routes xmlns:xsi="http://www.w3.org/2001/XMLSchema-instance" xsi:noNamespaceSchemaLocation="http://sumo.dlr.de/xsd/routes_file.xsd">
    <vType id="ped_pedestrian" vClass="pedestrian"/>
    <person id="ped0" depart="0.00" type="ped_pedestrian">
        <walk from="112515761#1" to="1358237062#3"/>
    </person>
    <person id="ped1" depart="0.98" type="ped_pedestrian">
        <walk from="597837597#0" to="-233629771#2"/>
    </person>
    <person id="ped2" depart="1.96" type="ped_pedestrian">
        <walk from="-37522068#0" to="-112515761#1"/>
    </person>
    <person id="ped3" depart="2.94" type="ped_pedestrian">
        <walk from="-20437767#3" to="1335720205"/>
    </person>
    <person id="ped4" depart="3.92" type="ped_pedestrian">
        <walk from="97236175" to="198187825#2"/>
    </person>
    <person id="ped5" depart="4.90" type="ped_pedestrian">
        <walk from="186354544#7" to="-908938111#0"/>
    </person>
    <person id="ped6" depart="5.89" type="ped_pedestrian">
        <walk from="-1297703457#0" to="528358804"/>
    </person>
    <person id="ped7" depart="6.87" type="ped_pedestrian">
        <walk from="1413276412" to="-1386671645#0"/>
    </person>
    <person id="ped8" depart="7.85" type="ped_pedestrian">
        <walk from="1291542297" to="758131031"/>
    </person>
    <person id="ped9" depart="8.83" type="ped_pedestrian">
        <walk from="-262879713" to="-490606271#2"/>
    </person>
    <person id="ped10" depart="9.81" type="ped_pedestrian">
        <walk from="-449717741" to="-119372733#0"/>
    </person>
    <person id="ped11" depart="10.79" type="ped_pedestrian">
        <walk from="1437799088#0" to="-920710232#5"/>
    </person>
    <person id="ped12" depart="11.77" type="ped_pedestrian">
        <walk from="504282966#0" to="142052148#5"/>
    </person>
    <person id="ped13" depart="12.75" type="ped_pedestrian">
        <walk from="-406920568#1" to="1226170570#0"/>
    </person>
    <person id="ped14" depart="13.73" type="ped_pedestrian">
        <walk from="406949416" to="163623451"/>
    </person>
    <person id="ped15" depart="14.71" type="ped_pedestrian">
        <walk from="-96152205#3" to="478028843#6"/>
    </person>
    <person id="ped16" depart="15.69" type="ped_pedestrian">
        <walk from="52502299#0" to="-1184218162#2"/>
    </person>
    <person id="ped17" depart="16.68" type="ped_pedestrian">
        <walk from="-20437777#0" to="-369007488"/>
    </person>
    <person id="ped18" depart="17.66" type="ped_pedestrian">
        <walk from="-108124428#1" to="30024892"/>
    </person>
    <person id="ped19" depart="18.64" type="ped_pedestrian">
        <walk from="1427304063" to="135935395"/>
    </person>
    <person id="ped20" depart="19.62" type="ped_pedestrian">
        <walk from="987724419#3" to="1013210011"/>
    </person>
    <person id="ped21" depart="20.60" type="ped_pedestrian">
        <walk from="-931322319#0" to="52129998#1"/>
    </person>
    <person id="ped22" depart="21.58" type="ped_pedestrian">
        <walk from="1413266140#1" to="-1220380451"/>
    </person>
    <person id="ped23" depart="22.56" type="ped_pedestrian">
        <walk from="-627584404" to="1425361378"/>
    </person>
    <person id="ped24" depart="23.54" type="ped_pedestrian">
        <walk from="1413496810#1" to="-293817957#2"/>
    </person>
    <person id="ped25" depart="24.52" type="ped_pedestrian">
        <walk from="1307080213#1" to="-601666698#4"/>
    </person>
    <person id="ped26" depart="25.50" type="ped_pedestrian">
        <walk from="-67411792#2" to="112136916#0"/>
    </person>
    <person id="ped27" depart="26.48" type="ped_pedestrian">
        <walk from="1429188413" to="741201990#0"/>
    </person>
    <person id="ped28" depart="27.46" type="ped_pedestrian">
        <walk from="-1319044652#0" to="715073566"/>
    </person>
    <person id="ped29" depart="28.45" type="ped_pedestrian">
        <walk from="326551910#2" to="-55874618#0"/>
    </person>
    <person id="ped30" depart="29.43" type="ped_pedestrian">
        <walk from="-440954770#1" to="20441570#1"/>
    </person>
    <person id="ped31" depart="30.41" type="ped_pedestrian">
        <walk from="1382042169" to="-129631339"/>
    </person>
    <person id="ped32" depart="31.39" type="ped_pedestrian">
        <walk from="-160212594#6" to="899493105"/>
    </person>
    <person id="ped33" depart="32.37" type="ped_pedestrian">
        <walk from="-47463290#2" to="-402014072"/>
    </person>
    <person id="ped34" depart="33.35" type="ped_pedestrian">
        <walk from="-83492504" to="-901974921"/>
    </person>
    <person id="ped35" depart="34.33" type="ped_pedestrian">
        <walk from="855278226" to="163623418#0"/>
    </person>
    <person id="ped36" depart="35.31" type="ped_pedestrian">
        <walk from="164014453#0" to="121860436"/>
    </person>
    <person id="ped37" depart="36.29" type="ped_pedestrian">
        <walk from="25116601#4" to="-1026143468#1"/>
    </person>
    <person id="ped38" depart="37.27" type="ped_pedestrian">
        <walk from="-75488751#0" to="1353184111"/>
    </person>
    <person id="ped39" depart="38.25" type="ped_pedestrian">
        <walk from="-739173545#0" to="-142757140#0"/>
    </person>
    <person id="ped40" depart="39.24" type="ped_pedestrian">
        <walk from="160212616#4" to="174970474#1"/>
    </person>
    <person id="ped41" depart="40.22" type="ped_pedestrian">
        <walk from="-867981792#1" to="1413048952"/>
    </person>
    <person id="ped42" depart="41.20" type="ped_pedestrian">
        <walk from="-83492500#0" to="1435723284"/>
    </person>
    <person id="ped43" depart="42.18" type="ped_pedestrian">
        <walk from="475414865#0" to="-1087288182#0"/>
    </person>
    <person id="ped44" depart="43.16" type="ped_pedestrian">
        <walk from="-1087288178#0" to="-1307080250#0"/>
    </person>
    <person id="ped45" depart="44.14" type="ped_pedestrian">
        <walk from="1382312868#1" to="585760140#6"/>
    </person>
    <person id="ped46" depart="45.12" type="ped_pedestrian">
        <walk from="771871388#0" to="-20437778#0"/>
    </person>
    <person id="ped47" depart="46.10" type="ped_pedestrian">
        <walk from="67124662#1" to="482991722#4"/>
    </person>
    <person id="ped48" depart="47.08" type="ped_pedestrian">
        <walk from="112136928" to="408853450"/>
    </person>
    <person id="ped49" depart="48.06" type="ped_pedestrian">
        <walk from="1451965625#1" to="-22737649#1"/>
    </person>
    <person id="ped50" depart="49.04" type="ped_pedestrian">
        <walk from="-241958402#3" to="1220380448"/>
    </person>
    <person id="ped51" depart="50.03" type="ped_pedestrian">
        <walk from="673412899#0" to="1263597832#1"/>
    </person>
    <person id="ped52" depart="51.01" type="ped_pedestrian">
        <walk from="625689405#2" to="131002535#0"/>
    </person>
    <person id="ped53" depart="51.99" type="ped_pedestrian">
        <walk from="42294632#0" to="-55874618#0"/>
    </person>
    <person id="ped54" depart="52.97" type="ped_pedestrian">
        <walk from="-294441451" to="51344615#8"/>
    </person>
    <person id="ped55" depart="53.95" type="ped_pedestrian">
        <walk from="-37520995" to="1184218162#1"/>
    </person>
    <person id="ped56" depart="54.93" type="ped_pedestrian">
        <walk from="893990374" to="119352417#2"/>
    </person>
    <person id="ped57" depart="55.91" type="ped_pedestrian">
        <walk from="-1026143463#0" to="42294704"/>
    </person>
    <person id="ped58" depart="56.89" type="ped_pedestrian">
        <walk from="-894509480" to="219607827"/>
    </person>
    <person id="ped59" depart="57.87" type="ped_pedestrian">
        <walk from="1310475481" to="-1037168980"/>
    </person>
    <person id="ped60" depart="58.85" type="ped_pedestrian">
        <walk from="1411194019#1" to="-625096582#1"/>
    </person>
    <person id="ped61" depart="59.83" type="ped_pedestrian">
        <walk from="143311245#0" to="30025170#6"/>
    </person>
    <person id="ped62" depart="60.82" type="ped_pedestrian">
        <walk from="889332403#0" to="-219716164#1"/>
    </person>
    <person id="ped63" depart="61.80" type="ped_pedestrian">
        <walk from="899493103" to="-129631339"/>
    </person>
    <person id="ped64" depart="62.78" type="ped_pedestrian">
        <walk from="-491692197" to="67301650#1"/>
    </person>
    <person id="ped65" depart="63.76" type="ped_pedestrian">
        <walk from="1346375973#0" to="1013334254#1"/>
    </person>
    <person id="ped66" depart="64.74" type="ped_pedestrian">
        <walk from="1373121528#2" to="510435202"/>
    </person>
    <person id="ped67" depart="65.72" type="ped_pedestrian">
        <walk from="1307649114#2" to="899493106"/>
    </person>
    <person id="ped68" depart="66.70" type="ped_pedestrian">
        <walk from="-112515818" to="-1071128137"/>
    </person>
    <person id="ped69" depart="67.68" type="ped_pedestrian">
        <walk from="-1086025330#0" to="241988389#1"/>
    </person>
    <person id="ped70" depart="68.66" type="ped_pedestrian">
        <walk from="408853448#1" to="363081593#5"/>
    </person>
    <person id="ped71" depart="69.64" type="ped_pedestrian">
        <walk from="1411194014#1" to="146218890"/>
    </person>
    <person id="ped72" depart="70.62" type="ped_pedestrian">
        <walk from="134230462#0" to="758213416#2"/>
    </person>
    <person id="ped73" depart="71.60" type="ped_pedestrian">
        <walk from="19889421#4" to="-112136942"/>
    </person>
    <person id="ped74" depart="72.59" type="ped_pedestrian">
        <walk from="-108124422#3" to="-449717733#1"/>
    </person>
    <person id="ped75" depart="73.57" type="ped_pedestrian">
        <walk from="-293817957#1" to="1384038625"/>
    </person>
    <person id="ped76" depart="74.55" type="ped_pedestrian">
        <walk from="-908938112#1" to="142055300#1"/>
    </person>
    <person id="ped77" depart="75.53" type="ped_pedestrian">
        <walk from="1354885440" to="1411173686"/>
    </person>
    <person id="ped78" depart="76.51" type="ped_pedestrian">
        <walk from="30027064" to="223218625"/>
    </person>
    <person id="ped79" depart="77.49" type="ped_pedestrian">
        <walk from="-720966388" to="243105766"/>
    </person>
    <person id="ped80" depart="78.47" type="ped_pedestrian">
        <walk from="-606061323#9" to="1413048995"/>
    </person>
    <person id="ped81" depart="79.45" type="ped_pedestrian">
        <walk from="720966392#8" to="1225936933"/>
    </person>
    <person id="ped82" depart="80.43" type="ped_pedestrian">
        <walk from="-906703239" to="-55158100#0"/>
    </person>
    <person id="ped83" depart="81.41" type="ped_pedestrian">
        <walk from="-1120577366#3" to="-1338308356#1"/>
    </person>
    <person id="ped84" depart="82.39" type="ped_pedestrian">
        <walk from="96152243#0" to="1375077334"/>
    </person>
    <person id="ped85" depart="83.38" type="ped_pedestrian">
        <walk from="369007485#1" to="-42467801"/>
    </person>
    <person id="ped86" depart="84.36" type="ped_pedestrian">
        <walk from="758213414#4" to="1384038623"/>
    </person>
    <person id="ped87" depart="85.34" type="ped_pedestrian">
        <walk from="1338308392#1" to="107470479"/>
    </person>
    <person id="ped88" depart="86.32" type="ped_pedestrian">
        <walk from="-1319044652#2" to="715073573"/>
    </person>
    <person id="ped89" depart="87.30" type="ped_pedestrian">
        <walk from="-96152248#0" to="-1120577368#1"/>
    </person>
    <person id="ped90" depart="88.28" type="ped_pedestrian">
        <walk from="142059671#1" to="746032766#1"/>
    </person>
    <person id="ped91" depart="89.26" type="ped_pedestrian">
        <walk from="-1079097170#0" to="-20437786"/>
    </person>
    <person id="ped92" depart="90.24" type="ped_pedestrian">
        <walk from="1307080256#1" to="1427200843"/>
    </person>
    <person id="ped93" depart="91.22" type="ped_pedestrian">
        <walk from="1097042707#4" to="1422686901"/>
    </person>
    <person id="ped94" depart="92.20" type="ped_pedestrian">
        <walk from="-490606270" to="-25116616"/>
    </person>
    <person id="ped95" depart="93.18" type="ped_pedestrian">
        <walk from="1425361367#0" to="1241599489#1"/>
    </person>
    <person id="ped96" depart="94.17" type="ped_pedestrian">
        <walk from="-23791685#2" to="1186910724"/>
    </person>
    <person id="ped97" depart="95.15" type="ped_pedestrian">
        <walk from="-1338308350#5" to="-67411761"/>
    </person>
    <person id="ped98" depart="96.13" type="ped_pedestrian">
        <walk from="1127508111#1" to="30024982#1"/>
    </person>
    <person id="ped99" depart="97.11" type="ped_pedestrian">
        <walk from="-140997952" to="142055300#0"/>
    </person>
    <person id="ped100" depart="98.09" type="ped_pedestrian">
        <walk from="1086025330#1" to="358703632"/>
    </person>
    <person id="ped101" depart="99.07" type="ped_pedestrian">
        <walk from="-768494055#0" to="1338308355#4"/>
    </person>
    <person id="ped102" depart="100.05" type="ped_pedestrian">
        <walk from="-634797299" to="1097042706#4"/>
    </person>
    <person id="ped103" depart="101.03" type="ped_pedestrian">
        <walk from="1384063786" to="-41590951#1"/>
    </person>
    <person id="ped104" depart="102.01" type="ped_pedestrian">
        <walk from="-142052138#2" to="771871398"/>
    </person>
    <person id="ped105" depart="102.99" type="ped_pedestrian">
        <walk from="-745161155#2" to="1335879500#0"/>
    </person>
    <person id="ped106" depart="103.97" type="ped_pedestrian">
        <walk from="956357512#0" to="-164014471#0"/>
    </person>
    <person id="ped107" depart="104.95" type="ped_pedestrian">
        <walk from="-118741685" to="-142060976#3"/>
    </person>
    <person id="ped108" depart="105.94" type="ped_pedestrian">
        <walk from="-956414411" to="-1213799205"/>
    </person>
    <person id="ped109" depart="106.92" type="ped_pedestrian">
        <walk from="-414947299" to="634797298"/>
    </person>
    <person id="ped110" depart="107.90" type="ped_pedestrian">
        <walk from="531726209" to="164014471#2"/>
    </person>
    <person id="ped111" depart="108.88" type="ped_pedestrian">
        <walk from="-52129999" to="-1149575667#1"/>
    </person>
    <person id="ped112" depart="109.86" type="ped_pedestrian">
        <walk from="1186910720#0" to="1411173699#2"/>
    </person>
    <person id="ped113" depart="110.84" type="ped_pedestrian">
        <walk from="406949418" to="963470037#1"/>
    </person>
    <person id="ped114" depart="111.82" type="ped_pedestrian">
        <walk from="1097042711#0" to="297105548#3"/>
    </person>
    <person id="ped115" depart="112.80" type="ped_pedestrian">
        <walk from="1454780911#1" to="-384196608"/>
    </person>
    <person id="ped116" depart="113.78" type="ped_pedestrian">
        <walk from="444110088#2" to="1382042170#1"/>
    </person>
    <person id="ped117" depart="114.76" type="ped_pedestrian">
        <walk from="26824662#0" to="292550641#0"/>
    </person>
    <person id="ped118" depart="115.74" type="ped_pedestrian">
        <walk from="369007494#0" to="1454456329#1"/>
    </person>
    <person id="ped119" depart="116.73" type="ped_pedestrian">
        <walk from="-142059678#4" to="19889415#0"/>
    </person>
    <person id="ped120" depart="117.71" type="ped_pedestrian">
        <walk from="-53644783" to="-406949418"/>
    </person>
    <person id="ped121" depart="118.69" type="ped_pedestrian">
        <walk from="-174970475#4" to="164014450"/>
    </person>
    <person id="ped122" depart="119.67" type="ped_pedestrian">
        <walk from="1413487664#0" to="-1263534155"/>
    </person>
    <person id="ped123" depart="120.65" type="ped_pedestrian">
        <walk from="96152227" to="442773132#0"/>
    </person>
    <person id="ped124" depart="121.63" type="ped_pedestrian">
        <walk from="490606271#2" to="1172717990#0"/>
    </person>
    <person id="ped125" depart="122.61" type="ped_pedestrian">
        <walk from="-1180768754" to="22767294#2"/>
    </person>
    <person id="ped126" depart="123.59" type="ped_pedestrian">
        <walk from="-121860442" to="-606061323#6"/>
    </person>
    <person id="ped127" depart="124.57" type="ped_pedestrian">
        <walk from="20437767#1" to="297105565#1"/>
    </person>
    <person id="ped128" depart="125.55" type="ped_pedestrian">
        <walk from="392689411#0" to="-41428659"/>
    </person>
    <person id="ped129" depart="126.53" type="ped_pedestrian">
        <walk from="-219752764#3" to="1413487648#0"/>
    </person>
    <person id="ped130" depart="127.52" type="ped_pedestrian">
        <walk from="42474488" to="262879708"/>
    </person>
    <person id="ped131" depart="128.50" type="ped_pedestrian">
        <walk from="22767294#1" to="730167666"/>
    </person>
    <person id="ped132" depart="129.48" type="ped_pedestrian">
        <walk from="482991722#0" to="-1174646212"/>
    </person>
    <person id="ped133" depart="130.46" type="ped_pedestrian">
        <walk from="-1072947215#0" to="-672517572"/>
    </person>
    <person id="ped134" depart="131.44" type="ped_pedestrian">
        <walk from="1079097171#2" to="948521199#1"/>
    </person>
    <person id="ped135" depart="132.42" type="ped_pedestrian">
        <walk from="25116601#6" to="1187867704"/>
    </person>
    <person id="ped136" depart="133.40" type="ped_pedestrian">
        <walk from="1384063760#0" to="1171634502#1"/>
    </person>
    <person id="ped137" depart="134.38" type="ped_pedestrian">
        <walk from="1039273705#0" to="83492504"/>
    </person>
    <person id="ped138" depart="135.36" type="ped_pedestrian">
        <walk from="450271744" to="112515818"/>
    </person>
    <person id="ped139" depart="136.34" type="ped_pedestrian">
        <walk from="624498955#0" to="1220510869#1"/>
    </person>
    <person id="ped140" depart="137.32" type="ped_pedestrian">
        <walk from="1307080211#2" to="627022000#1"/>
    </person>
    <person id="ped141" depart="138.31" type="ped_pedestrian">
        <walk from="118192674#3" to="118793670#1"/>
    </person>
    <person id="ped142" depart="139.29" type="ped_pedestrian">
        <walk from="-414947296#2" to="163623411"/>
    </person>
    <person id="ped143" depart="140.27" type="ped_pedestrian">
        <walk from="-30025576#6" to="-142060684#1"/>
    </person>
    <person id="ped144" depart="141.25" type="ped_pedestrian">
        <walk from="953293843#3" to="97050366#0"/>
    </person>
    <person id="ped145" depart="142.23" type="ped_pedestrian">
        <walk from="1413487663" to="585760138"/>
    </person>
    <person id="ped146" depart="143.21" type="ped_pedestrian">
        <walk from="741201990#2" to="1319044650#1"/>
    </person>
    <person id="ped147" depart="144.19" type="ped_pedestrian">
        <walk from="30025017#0" to="435180485#3"/>
    </person>
    <person id="ped148" depart="145.17" type="ped_pedestrian">
        <walk from="729375661#3" to="1317382897#1"/>
    </person>
    <person id="ped149" depart="146.15" type="ped_pedestrian">
        <walk from="1306619157#0" to="-134233679#1"/>
    </person>
    <person id="ped150" depart="147.13" type="ped_pedestrian">
        <walk from="406949421#0" to="443184635#1"/>
    </person>
    <person id="ped151" depart="148.11" type="ped_pedestrian">
        <walk from="1083353073" to="48240412#2"/>
    </person>
    <person id="ped152" depart="149.09" type="ped_pedestrian">
        <walk from="1099901039#1" to="67144582"/>
    </person>
    <person id="ped153" depart="150.08" type="ped_pedestrian">
        <walk from="48240421#0" to="-1369396776#1"/>
    </person>
    <person id="ped154" depart="151.06" type="ped_pedestrian">
        <walk from="1241599490#1" to="53644781"/>
    </person>
    <person id="ped155" depart="152.04" type="ped_pedestrian">
        <walk from="96152252#0" to="1241599490#3"/>
    </person>
    <person id="ped156" depart="153.02" type="ped_pedestrian">
        <walk from="-293817957#0" to="1413048964#1"/>
    </person>
    <person id="ped157" depart="154.00" type="ped_pedestrian">
        <walk from="-1120577366#3" to="115229332#1"/>
    </person>
    <person id="ped158" depart="154.98" type="ped_pedestrian">
        <walk from="-118793670#1" to="142060974#0"/>
    </person>
    <person id="ped159" depart="155.96" type="ped_pedestrian">
        <walk from="1315576909" to="1413496810#1"/>
    </person>
    <person id="ped160" depart="156.94" type="ped_pedestrian">
        <walk from="163623318#3" to="993241570#3"/>
    </person>
    <person id="ped161" depart="157.92" type="ped_pedestrian">
        <walk from="-1225164379" to="-478028843#0"/>
    </person>
    <person id="ped162" depart="158.90" type="ped_pedestrian">
        <walk from="-928846821#0" to="928846817"/>
    </person>
    <person id="ped163" depart="159.88" type="ped_pedestrian">
        <walk from="1338308356#5" to="-1037168980"/>
    </person>
    <person id="ped164" depart="160.87" type="ped_pedestrian">
        <walk from="-41590951#1" to="-541616923#1"/>
    </person>
    <person id="ped165" depart="161.85" type="ped_pedestrian">
        <walk from="-233525232#1" to="30025151#1"/>
    </person>
    <person id="ped166" depart="162.83" type="ped_pedestrian">
        <walk from="1365801352#0" to="60844538"/>
    </person>
    <person id="ped167" depart="163.81" type="ped_pedestrian">
        <walk from="1422686900" to="1382312883#0"/>
    </person>
    <person id="ped168" depart="164.79" type="ped_pedestrian">
        <walk from="-1174646202" to="1291542297"/>
    </person>
    <person id="ped169" depart="165.77" type="ped_pedestrian">
        <walk from="-920710233#1" to="715073567#2"/>
    </person>
    <person id="ped170" depart="166.75" type="ped_pedestrian">
        <walk from="-67144469#0" to="233525253"/>
    </person>
    <person id="ped171" depart="167.73" type="ped_pedestrian">
        <walk from="369007494#0" to="1413271892#1"/>
    </person>
    <person id="ped172" depart="168.71" type="ped_pedestrian">
        <walk from="1307080201#0" to="1338308357"/>
    </person>
    <person id="ped173" depart="169.69" type="ped_pedestrian">
        <walk from="1069085504#3" to="-30025019"/>
    </person>
    <person id="ped174" depart="170.67" type="ped_pedestrian">
        <walk from="1307080255#1" to="627021998#9"/>
    </person>
    <person id="ped175" depart="171.66" type="ped_pedestrian">
        <walk from="-55874618#3" to="-112515761#1"/>
    </person>
    <person id="ped176" depart="172.64" type="ped_pedestrian">
        <walk from="1120577369#0" to="142757143#1"/>
    </person>
    <person id="ped177" depart="173.62" type="ped_pedestrian">
        <walk from="174970475#4" to="-20437786"/>
    </person>
    <person id="ped178" depart="174.60" type="ped_pedestrian">
        <walk from="1451973696#1" to="112136905"/>
    </person>
    <person id="ped179" depart="175.58" type="ped_pedestrian">
        <walk from="406949416" to="1079097170#2"/>
    </person>
    <person id="ped180" depart="176.56" type="ped_pedestrian">
        <walk from="1413048952" to="-1071128136#1"/>
    </person>
    <person id="ped181" depart="177.54" type="ped_pedestrian">
        <walk from="83492500#2" to="119353326#3"/>
    </person>
    <person id="ped182" depart="178.52" type="ped_pedestrian">
        <walk from="-1315613577#1" to="1382042183"/>
    </person>
    <person id="ped183" depart="179.50" type="ped_pedestrian">
        <walk from="60844538" to="1254889834"/>
    </person>
    <person id="ped184" depart="180.48" type="ped_pedestrian">
        <walk from="1425361377#1" to="-1344385465"/>
    </person>
    <person id="ped185" depart="181.46" type="ped_pedestrian">
        <walk from="160212616#1" to="-184279492#0"/>
    </person>
    <person id="ped186" depart="182.45" type="ped_pedestrian">
        <walk from="993241571#2" to="1411194045"/>
    </person>
    <person id="ped187" depart="183.43" type="ped_pedestrian">
        <walk from="1062471108" to="-1070810243#2"/>
    </person>
    <person id="ped188" depart="184.41" type="ped_pedestrian">
        <walk from="83492490#3" to="-548996530#1"/>
    </person>
    <person id="ped189" depart="185.39" type="ped_pedestrian">
        <walk from="771871400#1" to="993241571#8"/>
    </person>
    <person id="ped190" depart="186.37" type="ped_pedestrian">
        <walk from="-119372736#0" to="730167664"/>
    </person>
    <person id="ped191" depart="187.35" type="ped_pedestrian">
        <walk from="-96152223#0" to="597837602#4"/>
    </person>
    <person id="ped192" depart="188.33" type="ped_pedestrian">
        <walk from="715073566" to="1411194016"/>
    </person>
    <person id="ped193" depart="189.31" type="ped_pedestrian">
        <walk from="96152251#1" to="1251172858#0"/>
    </person>
    <person id="ped194" depart="190.29" type="ped_pedestrian">
        <walk from="26824848#0" to="-67411800#2"/>
    </person>
    <person id="ped195" depart="191.27" type="ped_pedestrian">
        <walk from="160212594#2" to="-1184216408"/>
    </person>
    <person id="ped196" depart="192.25" type="ped_pedestrian">
        <walk from="264804170" to="118644742#0"/>
    </person>
    <person id="ped197" depart="193.23" type="ped_pedestrian">
        <walk from="147267075#1" to="730167666"/>
    </person>
    <person id="ped198" depart="194.22" type="ped_pedestrian">
        <walk from="242894146#1" to="51344608#12"/>
    </person>
    <person id="ped199" depart="195.20" type="ped_pedestrian">
        <walk from="59389068#2" to="1098839318#1"/>
    </person>
    <person id="ped200" depart="196.18" type="ped_pedestrian">
        <walk from="153002660#2" to="1384038644#1"/>
    </person>
    <person id="ped201" depart="197.16" type="ped_pedestrian">
        <walk from="57372786" to="-218731027"/>
    </person>
    <person id="ped202" depart="198.14" type="ped_pedestrian">
        <walk from="1413276394#1" to="-598002446"/>
    </person>
    <person id="ped203" depart="199.12" type="ped_pedestrian">
        <walk from="956357512#3" to="-1335879500#0"/>
    </person>
    <person id="ped204" depart="200.10" type="ped_pedestrian">
        <walk from="732558166#1" to="1099666277"/>
    </person>
    <person id="ped205" depart="201.08" type="ped_pedestrian">
        <walk from="1413271865#1" to="1013334257#0"/>
    </person>
    <person id="ped206" depart="202.06" type="ped_pedestrian">
        <walk from="917963179#1" to="42294993#3"/>
    </person>
    <person id="ped207" depart="203.04" type="ped_pedestrian">
        <walk from="1454780914" to="1315763644#1"/>
    </person>
    <person id="ped208" depart="204.02" type="ped_pedestrian">
        <walk from="1409244951" to="-406949418"/>
    </person>
    <person id="ped209" depart="205.01" type="ped_pedestrian">
        <walk from="-1284588390#4" to="1253798312#1"/>
    </person>
    <person id="ped210" depart="205.99" type="ped_pedestrian">
        <walk from="97236171" to="1388729582#1"/>
    </person>
    <person id="ped211" depart="206.97" type="ped_pedestrian">
        <walk from="1241486774#0" to="-1338308353#0"/>
    </person>
    <person id="ped212" depart="207.95" type="ped_pedestrian">
        <walk from="1413496789" to="298643029#1"/>
    </person>
    <person id="ped213" depart="208.93" type="ped_pedestrian">
        <walk from="758213444#6" to="685010990"/>
    </person>
    <person id="ped214" depart="209.91" type="ped_pedestrian">
        <walk from="673412899#0" to="96152229#10"/>
    </person>
    <person id="ped215" depart="210.89" type="ped_pedestrian">
        <walk from="758213443#3" to="186354544#6"/>
    </person>
    <person id="ped216" depart="211.87" type="ped_pedestrian">
        <walk from="30024911" to="326551909"/>
    </person>
    <person id="ped217" depart="212.85" type="ped_pedestrian">
        <walk from="112136941#0" to="-142060075"/>
    </person>
    <person id="ped218" depart="213.83" type="ped_pedestrian">
        <walk from="112136923" to="-164014467#1"/>
    </person>
    <person id="ped219" depart="214.81" type="ped_pedestrian">
        <walk from="-25116601#3" to="1338308401"/>
    </person>
    <person id="ped220" depart="215.80" type="ped_pedestrian">
        <walk from="160212616#3" to="-978781529#7"/>
    </person>
    <person id="ped221" depart="216.78" type="ped_pedestrian">
        <walk from="-1319044652#2" to="1382312881#0"/>
    </person>
    <person id="ped222" depart="217.76" type="ped_pedestrian">
        <walk from="-369007492#2" to="-53644781"/>
    </person>
    <person id="ped223" depart="218.74" type="ped_pedestrian">
        <walk from="-1319044652#0" to="41656968#0"/>
    </person>
    <person id="ped224" depart="219.72" type="ped_pedestrian">
        <walk from="-134230455#0" to="-685010987#0"/>
    </person>
    <person id="ped225" depart="220.70" type="ped_pedestrian">
        <walk from="-112136911" to="1363896199"/>
    </person>
    <person id="ped226" depart="221.68" type="ped_pedestrian">
        <walk from="1315763644#4" to="758213414#4"/>
    </person>
    <person id="ped227" depart="222.66" type="ped_pedestrian">
        <walk from="-1123466933#3" to="922985788#2"/>